/*---------------------------------------------------------------------------*\
| =========                 |                                                 |
| \\      /  F ield         | OpenFOAM: The Open Source CFD Toolbox           |
|  \\    /   O peration     | Version:  2112                                  |
|   \\  /    A nd           | Website:  www.openfoam.com                      |
|    \\/     M anipulation  |                                                 |
\*---------------------------------------------------------------------------*/
Build  : _80318542-20220301 OPENFOAM=2112 patch=220310 version=2112
Arch   : "LSB;label=32;scalar=64"
Exec   : chtMultiRegionSimpleFoam
Date   : Jun 10 2023
Time   : 23:36:01
Host   : ubuntu
PID    : 23827
I/O    : uncollated
Case   : /home/andro/Desktop/sample/case
nProcs : 1
trapFpe: Floating point exception trapping enabled (FOAM_SIGFPE).
fileModificationChecking : Monitoring run-time modified files using timeStampMaster (fileModificationSkew 5, maxFileModificationPolls 20)
allowSystemOperations : Allowing user-supplied system call operations

// * * * * * * * * * * * * * * * * * * * * * * * * * * * * * * * * * * * * * //
Create time

Create fluid mesh for region air for time = 0

Create fluid mesh for region porous for time = 0

*** Reading fluid mesh thermophysical properties for region air

    Adding to thermoFluid

Selecting thermodynamics package 
{
    type            heRhoThermo;
    mixture         pureMixture;
    transport       polynomial;
    thermo          hPolynomial;
    equationOfState icoPolynomial;
    specie          specie;
    energy          sensibleEnthalpy;
}

--> FOAM Warning : 
    From Foam::compressible::turbulentTemperatureCoupledBaffleMixedFvPatchScalarField::turbulentTemperatureCoupledBaffleMixedFvPatchScalarField(const Foam::fvPatch&, const Foam::DimensionedField<double, Foam::volMesh>&, const Foam::dictionary&)
    in file turbulentFluidThermoModels/derivedFvPatchFields/turbulentTemperatureCoupledBaffleMixed/turbulentTemperatureCoupledBaffleMixedFvPatchScalarField.C at line 126
    This BC has been superseded by compressible::turbulentTemperatureRadCoupledMixed which has more functionalities and it can handle the assemble coupled option for energy. 
    Adding to rhoFluid

    Adding to UFluid

    Adding to phiFluid

    Adding to hRefFluid

    Adding to ghFluid

    Adding to ghfFluid

    Adding to turbulence

Selecting turbulence model type RAS
Selecting RAS turbulence model kEpsilon
RAS
{
    RASModel        kEpsilon;
    turbulence      on;
    printCoeffs     on;
    Cmu             0.09;
    C1              1.44;
    C2              1.92;
    C3              0;
    sigmak          1;
    sigmaEps        1.3;
}

Selecting radiationModel none
    Adding MRF

No MRF models present

    Adding fvOptions

Creating finite volume options from "constant/fvOptions"

Selecting finite volume options type constantHeatTransfer
    Source: airToporous
Selecting finite volume options type interRegionExplicitPorositySource
    Source: porosityBlockage
- selecting inter region mapping
Creating mesh-to-mesh addressing for air and porous regions using cellVolumeWeight
    Overlap volume: 0
*** Reading fluid mesh thermophysical properties for region porous

    Adding to thermoFluid

Selecting thermodynamics package 
{
    type            heRhoThermo;
    mixture         pureMixture;
    transport       sutherland;
    thermo          hConst;
    equationOfState perfectGas;
    specie          specie;
    energy          sensibleEnthalpy;
}

--> FOAM Warning : 
    From Foam::compressible::turbulentTemperatureCoupledBaffleMixedFvPatchScalarField::turbulentTemperatureCoupledBaffleMixedFvPatchScalarField(const Foam::fvPatch&, const Foam::DimensionedField<double, Foam::volMesh>&, const Foam::dictionary&)
    in file turbulentFluidThermoModels/derivedFvPatchFields/turbulentTemperatureCoupledBaffleMixed/turbulentTemperatureCoupledBaffleMixedFvPatchScalarField.C at line 126
    This BC has been superseded by compressible::turbulentTemperatureRadCoupledMixed which has more functionalities and it can handle the assemble coupled option for energy. 
    Adding to rhoFluid

    Adding to UFluid

    Adding to phiFluid

    Adding to hRefFluid

    Adding to ghFluid

    Adding to ghfFluid

    Adding to turbulence

Selecting turbulence model type laminar
Selecting laminar stress model Stokes
Radiation model not active: radiationProperties not found
Selecting radiationModel none
    Adding MRF

No MRF models present

    Adding fvOptions

Creating finite volume options from "constant/fvOptions"

Selecting finite volume options type constantHeatTransfer
    Source: porousToair
- selecting inter region mapping
Creating mesh-to-mesh addressing for porous and air regions using cellVolumeWeight
    Overlap volume: 0
Time = 1


Solving for fluid region air
Porosity region porosityBlockage:
    selecting model: DarcyForchheimer
    creating porous zone: porosityBlockage:porous
    origin: (0 0 0) e1: (0 1 0) e2: (0 0 1)
    local bounds: (0.7 0.299685 0.0502199)

DILUPBiCGStab:  Solving for Ux, Initial residual = 1, Final residual = 0.0302183, No Iterations 1
DILUPBiCGStab:  Solving for Uy, Initial residual = 1, Final residual = 0.0173712, No Iterations 1
DILUPBiCGStab:  Solving for Uz, Initial residual = 1, Final residual = 0.0282464, No Iterations 1
DILUPBiCGStab:  Solving for h, Initial residual = 1, Final residual = 0.0270001, No Iterations 1
Min/max T:300 373
GAMG:  Solving for p_rgh, Initial residual = 1, Final residual = 0.00657322, No Iterations 7
time step continuity errors : sum local = 0.0353485, global = -0.000694091, cumulative = -0.000694091
Min/max rho:1 1.17081
DILUPBiCGStab:  Solving for epsilon, Initial residual = 0.0281101, Final residual = 0.000417928, No Iterations 1
DILUPBiCGStab:  Solving for k, Initial residual = 1, Final residual = 0.0255904, No Iterations 1

Solving for fluid region porous
DILUPBiCGStab:  Solving for Ux, Initial residual = 1, Final residual = 0.00855496, No Iterations 1
DILUPBiCGStab:  Solving for Uy, Initial residual = 1, Final residual = 0.0143041, No Iterations 1
DILUPBiCGStab:  Solving for Uz, Initial residual = 1, Final residual = 0.00852658, No Iterations 1
DILUPBiCGStab:  Solving for h, Initial residual = 1, Final residual = 0.0128494, No Iterations 1
Min/max T:373 400
GAMG:  Solving for p_rgh, Initial residual = 1, Final residual = 0.00991415, No Iterations 8
time step continuity errors : sum local = 0.0635553, global = 0.000559056, cumulative = -0.000135035
Min/max rho:900 900
ExecutionTime = 79.75 s  ClockTime = 80 s

Time = 2


Solving for fluid region air
DILUPBiCGStab:  Solving for Ux, Initial residual = 0.499106, Final residual = 0.0123443, No Iterations 1
DILUPBiCGStab:  Solving for Uy, Initial residual = 0.428544, Final residual = 0.00787352, No Iterations 1
DILUPBiCGStab:  Solving for Uz, Initial residual = 0.485383, Final residual = 0.0123996, No Iterations 1
DILUPBiCGStab:  Solving for h, Initial residual = 0.256817, Final residual = 0.00747676, No Iterations 1
Min/max T:289.062 373
GAMG:  Solving for p_rgh, Initial residual = 0.499635, Final residual = 0.00274933, No Iterations 4
time step continuity errors : sum local = 0.900487, global = 0.0915216, cumulative = 0.0913866
Min/max rho:1 1.21729
DILUPBiCGStab:  Solving for epsilon, Initial residual = 0.0800551, Final residual = 0.00163335, No Iterations 1
DILUPBiCGStab:  Solving for k, Initial residual = 0.775945, Final residual = 0.0205841, No Iterations 1

Solving for fluid region porous
DILUPBiCGStab:  Solving for Ux, Initial residual = 0.330085, Final residual = 0.00570532, No Iterations 1
DILUPBiCGStab:  Solving for Uy, Initial residual = 0.607196, Final residual = 0.010267, No Iterations 1
DILUPBiCGStab:  Solving for Uz, Initial residual = 0.325195, Final residual = 0.00520205, No Iterations 1
DILUPBiCGStab:  Solving for h, Initial residual = 0.23894, Final residual = 0.00322623, No Iterations 1
Min/max T:373 400
GAMG:  Solving for p_rgh, Initial residual = 0.0035245, Final residual = 1.73202e-05, No Iterations 6
time step continuity errors : sum local = 270.739, global = -3.04771, cumulative = -2.95633
Min/max rho:900 1100
ExecutionTime = 86.79 s  ClockTime = 87 s

Time = 3


Solving for fluid region air
DILUPBiCGStab:  Solving for Ux, Initial residual = 0.0679983, Final residual = 0.00186247, No Iterations 1
DILUPBiCGStab:  Solving for Uy, Initial residual = 0.19728, Final residual = 0.00283592, No Iterations 1
DILUPBiCGStab:  Solving for Uz, Initial residual = 0.0936316, Final residual = 0.00222672, No Iterations 1
DILUPBiCGStab:  Solving for h, Initial residual = 0.0304014, Final residual = 0.000775419, No Iterations 1
Min/max T:291.318 373
GAMG:  Solving for p_rgh, Initial residual = 0.416108, Final residual = 0.00200284, No Iterations 5
time step continuity errors : sum local = 0.208383, global = 0.0249336, cumulative = -2.93139
Min/max rho:1 1.20747
DILUPBiCGStab:  Solving for epsilon, Initial residual = 0.0601366, Final residual = 0.00116346, No Iterations 1
DILUPBiCGStab:  Solving for k, Initial residual = 0.135575, Final residual = 0.00329781, No Iterations 1

Solving for fluid region porous
DILUPBiCGStab:  Solving for Ux, Initial residual = 0.102236, Final residual = 0.00182728, No Iterations 1
DILUPBiCGStab:  Solving for Uy, Initial residual = 0.227, Final residual = 0.0039375, No Iterations 1
DILUPBiCGStab:  Solving for Uz, Initial residual = 0.10078, Final residual = 0.00169974, No Iterations 1
DILUPBiCGStab:  Solving for h, Initial residual = 0.133327, Final residual = 0.00193615, No Iterations 1
Min/max T:373 400
GAMG:  Solving for p_rgh, Initial residual = 0.00490988, Final residual = 3.46775e-05, No Iterations 6
time step continuity errors : sum local = 230.684, global = -3.91353, cumulative = -6.84492
Min/max rho:900 900
ExecutionTime = 94.22 s  ClockTime = 94 s

Time = 4


Solving for fluid region air
DILUPBiCGStab:  Solving for Ux, Initial residual = 0.243611, Final residual = 0.00574947, No Iterations 1
DILUPBiCGStab:  Solving for Uy, Initial residual = 0.370337, Final residual = 0.00611783, No Iterations 1
DILUPBiCGStab:  Solving for Uz, Initial residual = 0.267125, Final residual = 0.00639267, No Iterations 1
DILUPBiCGStab:  Solving for h, Initial residual = 0.0215083, Final residual = 0.000567678, No Iterations 1
Min/max T:293.288 373
GAMG:  Solving for p_rgh, Initial residual = 0.306736, Final residual = 0.00204856, No Iterations 4
time step continuity errors : sum local = 0.196861, global = -0.0375128, cumulative = -6.88244
Min/max rho:1 1.199
DILUPBiCGStab:  Solving for epsilon, Initial residual = 0.023222, Final residual = 0.000452148, No Iterations 1
DILUPBiCGStab:  Solving for k, Initial residual = 0.0576951, Final residual = 0.00123312, No Iterations 1

Solving for fluid region porous
DILUPBiCGStab:  Solving for Ux, Initial residual = 0.0756946, Final residual = 0.000968195, No Iterations 1
DILUPBiCGStab:  Solving for Uy, Initial residual = 0.0545987, Final residual = 0.00104875, No Iterations 1
DILUPBiCGStab:  Solving for Uz, Initial residual = 0.0781433, Final residual = 0.000892459, No Iterations 1
DILUPBiCGStab:  Solving for h, Initial residual = 0.0884258, Final residual = 0.00132713, No Iterations 1
Min/max T:373 400
GAMG:  Solving for p_rgh, Initial residual = 0.00822189, Final residual = 4.36565e-05, No Iterations 7
time step continuity errors : sum local = 78.3203, global = 0.17479, cumulative = -6.70765
Min/max rho:900 900
ExecutionTime = 101.97 s  ClockTime = 102 s

Time = 5


Solving for fluid region air
DILUPBiCGStab:  Solving for Ux, Initial residual = 0.148007, Final residual = 0.00381191, No Iterations 1
DILUPBiCGStab:  Solving for Uy, Initial residual = 0.208337, Final residual = 0.00333331, No Iterations 1
DILUPBiCGStab:  Solving for Uz, Initial residual = 0.166064, Final residual = 0.00409843, No Iterations 1
DILUPBiCGStab:  Solving for h, Initial residual = 0.0160385, Final residual = 0.000481693, No Iterations 1
Min/max T:294.709 373
GAMG:  Solving for p_rgh, Initial residual = 0.303739, Final residual = 0.00148138, No Iterations 5
time step continuity errors : sum local = 0.103478, global = -0.0121904, cumulative = -6.71984
Min/max rho:1 1.19294
DILUPBiCGStab:  Solving for epsilon, Initial residual = 0.0146424, Final residual = 0.000282594, No Iterations 1
DILUPBiCGStab:  Solving for k, Initial residual = 0.0332031, Final residual = 0.000675953, No Iterations 1

Solving for fluid region porous
DILUPBiCGStab:  Solving for Ux, Initial residual = 0.19158, Final residual = 0.00285167, No Iterations 1
DILUPBiCGStab:  Solving for Uy, Initial residual = 0.233758, Final residual = 0.00399128, No Iterations 1
DILUPBiCGStab:  Solving for Uz, Initial residual = 0.196812, Final residual = 0.00275811, No Iterations 1
DILUPBiCGStab:  Solving for h, Initial residual = 0.0641722, Final residual = 0.000974956, No Iterations 1
Min/max T:373 400
GAMG:  Solving for p_rgh, Initial residual = 0.00535968, Final residual = 3.6033e-05, No Iterations 5
time step continuity errors : sum local = 178.195, global = -10.7225, cumulative = -17.4423
Min/max rho:900 900
ExecutionTime = 109.58 s  ClockTime = 110 s

Time = 6


Solving for fluid region air
DILUPBiCGStab:  Solving for Ux, Initial residual = 0.0708565, Final residual = 0.00160235, No Iterations 1
DILUPBiCGStab:  Solving for Uy, Initial residual = 0.21906, Final residual = 0.00375851, No Iterations 1
DILUPBiCGStab:  Solving for Uz, Initial residual = 0.0718613, Final residual = 0.00149804, No Iterations 1
DILUPBiCGStab:  Solving for h, Initial residual = 0.0134353, Final residual = 0.000425735, No Iterations 1
Min/max T:295.788 373
GAMG:  Solving for p_rgh, Initial residual = 0.477635, Final residual = 0.00320607, No Iterations 3
time step continuity errors : sum local = 0.0933566, global = -0.00843845, cumulative = -17.4508
Min/max rho:1 1.18837
DILUPBiCGStab:  Solving for epsilon, Initial residual = 0.0094765, Final residual = 0.000182327, No Iterations 1
DILUPBiCGStab:  Solving for k, Initial residual = 0.0215558, Final residual = 0.00043496, No Iterations 1

Solving for fluid region porous
DILUPBiCGStab:  Solving for Ux, Initial residual = 0.0815694, Final residual = 0.0012064, No Iterations 1
DILUPBiCGStab:  Solving for Uy, Initial residual = 0.095426, Final residual = 0.00161792, No Iterations 1
DILUPBiCGStab:  Solving for Uz, Initial residual = 0.0854187, Final residual = 0.00121834, No Iterations 1
DILUPBiCGStab:  Solving for h, Initial residual = 0.0500114, Final residual = 0.000768071, No Iterations 1
Min/max T:373 400
GAMG:  Solving for p_rgh, Initial residual = 0.00821612, Final residual = 4.03738e-05, No Iterations 6
time step continuity errors : sum local = 69.0528, global = -3.41994, cumulative = -20.8707
Min/max rho:900 900
ExecutionTime = 116.66 s  ClockTime = 117 s

Time = 7


Solving for fluid region air
DILUPBiCGStab:  Solving for Ux, Initial residual = 0.0532232, Final residual = 0.00141054, No Iterations 1
DILUPBiCGStab:  Solving for Uy, Initial residual = 0.166811, Final residual = 0.00276273, No Iterations 1
DILUPBiCGStab:  Solving for Uz, Initial residual = 0.0610057, Final residual = 0.00150121, No Iterations 1
DILUPBiCGStab:  Solving for h, Initial residual = 0.0112916, Final residual = 0.00036843, No Iterations 1
Min/max T:296.621 373
GAMG:  Solving for p_rgh, Initial residual = 0.253018, Final residual = 0.00247072, No Iterations 4
time step continuity errors : sum local = 0.0725048, global = 0.00700315, cumulative = -20.8637
Min/max rho:1 1.18487
DILUPBiCGStab:  Solving for epsilon, Initial residual = 0.0067396, Final residual = 0.000129066, No Iterations 1
DILUPBiCGStab:  Solving for k, Initial residual = 0.0159444, Final residual = 0.00033468, No Iterations 1

Solving for fluid region porous
DILUPBiCGStab:  Solving for Ux, Initial residual = 0.0244534, Final residual = 0.000410572, No Iterations 1
DILUPBiCGStab:  Solving for Uy, Initial residual = 0.0400778, Final residual = 0.000738549, No Iterations 1
DILUPBiCGStab:  Solving for Uz, Initial residual = 0.0247896, Final residual = 0.000385395, No Iterations 1
DILUPBiCGStab:  Solving for h, Initial residual = 0.0406415, Final residual = 0.00062954, No Iterations 1
Min/max T:373 400
GAMG:  Solving for p_rgh, Initial residual = 0.00360298, Final residual = 1.77754e-05, No Iterations 5
time step continuity errors : sum local = 25.3823, global = 0.957635, cumulative = -19.9061
Min/max rho:900 900
ExecutionTime = 124.26 s  ClockTime = 124 s

Time = 8


Solving for fluid region air
DILUPBiCGStab:  Solving for Ux, Initial residual = 0.0222225, Final residual = 0.000610275, No Iterations 1
DILUPBiCGStab:  Solving for Uy, Initial residual = 0.10827, Final residual = 0.00199587, No Iterations 1
DILUPBiCGStab:  Solving for Uz, Initial residual = 0.0251105, Final residual = 0.000583984, No Iterations 1
DILUPBiCGStab:  Solving for h, Initial residual = 0.00938081, Final residual = 0.00030712, No Iterations 1
Min/max T:297.163 373
GAMG:  Solving for p_rgh, Initial residual = 0.225159, Final residual = 0.0014865, No Iterations 4
time step continuity errors : sum local = 0.0273025, global = 0.00377995, cumulative = -19.9023
Min/max rho:1 1.1826
DILUPBiCGStab:  Solving for epsilon, Initial residual = 0.00502587, Final residual = 9.53126e-05, No Iterations 1
DILUPBiCGStab:  Solving for k, Initial residual = 0.0119595, Final residual = 0.000263954, No Iterations 1

Solving for fluid region porous
DILUPBiCGStab:  Solving for Ux, Initial residual = 0.0170915, Final residual = 0.000289377, No Iterations 1
DILUPBiCGStab:  Solving for Uy, Initial residual = 0.0349076, Final residual = 0.000640642, No Iterations 1
DILUPBiCGStab:  Solving for Uz, Initial residual = 0.0177418, Final residual = 0.000288306, No Iterations 1
DILUPBiCGStab:  Solving for h, Initial residual = 0.0340418, Final residual = 0.0005308, No Iterations 1
Min/max T:373 400
GAMG:  Solving for p_rgh, Initial residual = 0.00395017, Final residual = 3.46113e-05, No Iterations 5
time step continuity errors : sum local = 48.7965, global = 1.31011, cumulative = -18.5922
Min/max rho:900 900
ExecutionTime = 131.65 s  ClockTime = 132 s

Time = 9


Solving for fluid region air
DILUPBiCGStab:  Solving for Ux, Initial residual = 0.0180229, Final residual = 0.000471917, No Iterations 1
DILUPBiCGStab:  Solving for Uy, Initial residual = 0.0824094, Final residual = 0.00152302, No Iterations 1
DILUPBiCGStab:  Solving for Uz, Initial residual = 0.0230575, Final residual = 0.000552669, No Iterations 1
DILUPBiCGStab:  Solving for h, Initial residual = 0.00785502, Final residual = 0.000254887, No Iterations 1
Min/max T:297.633 373
GAMG:  Solving for p_rgh, Initial residual = 0.208814, Final residual = 0.000969199, No Iterations 4
time step continuity errors : sum local = 0.0142813, global = -0.000618399, cumulative = -18.5928
Min/max rho:1 1.18063
DILUPBiCGStab:  Solving for epsilon, Initial residual = 0.0038525, Final residual = 7.27354e-05, No Iterations 1
DILUPBiCGStab:  Solving for k, Initial residual = 0.00975014, Final residual = 0.000219274, No Iterations 1

Solving for fluid region porous
DILUPBiCGStab:  Solving for Ux, Initial residual = 0.0199393, Final residual = 0.000284867, No Iterations 1
DILUPBiCGStab:  Solving for Uy, Initial residual = 0.0103804, Final residual = 0.000158763, No Iterations 1
DILUPBiCGStab:  Solving for Uz, Initial residual = 0.0207431, Final residual = 0.000283482, No Iterations 1
DILUPBiCGStab:  Solving for h, Initial residual = 0.029172, Final residual = 0.000457199, No Iterations 1
Min/max T:373 400
GAMG:  Solving for p_rgh, Initial residual = 0.00434238, Final residual = 3.73449e-05, No Iterations 5
time step continuity errors : sum local = 18.5672, global = 0.0828294, cumulative = -18.51
Min/max rho:900 900
ExecutionTime = 138.76 s  ClockTime = 139 s

Time = 10


Solving for fluid region air
DILUPBiCGStab:  Solving for Ux, Initial residual = 0.0113267, Final residual = 0.000327565, No Iterations 1
DILUPBiCGStab:  Solving for Uy, Initial residual = 0.0600153, Final residual = 0.00126454, No Iterations 1
DILUPBiCGStab:  Solving for Uz, Initial residual = 0.0161293, Final residual = 0.000412806, No Iterations 1
DILUPBiCGStab:  Solving for h, Initial residual = 0.00666105, Final residual = 0.000213448, No Iterations 1
Min/max T:298.142 373
GAMG:  Solving for p_rgh, Initial residual = 0.130882, Final residual = 0.000871899, No Iterations 4
time step continuity errors : sum local = 0.0115685, global = -0.00189117, cumulative = -18.5118
Min/max rho:1 1.17851
DILUPBiCGStab:  Solving for epsilon, Initial residual = 0.00306401, Final residual = 5.92202e-05, No Iterations 1
DILUPBiCGStab:  Solving for k, Initial residual = 0.00866954, Final residual = 0.000193524, No Iterations 1

Solving for fluid region porous
DILUPBiCGStab:  Solving for Ux, Initial residual = 0.0236351, Final residual = 0.000353844, No Iterations 1
DILUPBiCGStab:  Solving for Uy, Initial residual = 0.0146571, Final residual = 0.00023428, No Iterations 1
DILUPBiCGStab:  Solving for Uz, Initial residual = 0.0245166, Final residual = 0.000351519, No Iterations 1
DILUPBiCGStab:  Solving for h, Initial residual = 0.0254501, Final residual = 0.000400384, No Iterations 1
Min/max T:373 400
GAMG:  Solving for p_rgh, Initial residual = 0.00965234, Final residual = 4.64239e-05, No Iterations 5
time step continuity errors : sum local = 9.29199, global = -0.401917, cumulative = -18.9138
Min/max rho:900 900
ExecutionTime = 145.87 s  ClockTime = 146 s

Time = 11


Solving for fluid region air
DILUPBiCGStab:  Solving for Ux, Initial residual = 0.00768591, Final residual = 0.000211945, No Iterations 1
DILUPBiCGStab:  Solving for Uy, Initial residual = 0.0489308, Final residual = 0.00115015, No Iterations 1
DILUPBiCGStab:  Solving for Uz, Initial residual = 0.0119519, Final residual = 0.000307223, No Iterations 1
DILUPBiCGStab:  Solving for h, Initial residual = 0.00573323, Final residual = 0.000181306, No Iterations 1
Min/max T:298.395 373
GAMG:  Solving for p_rgh, Initial residual = 0.109928, Final residual = 0.000467183, No Iterations 4
time step continuity errors : sum local = 0.00482079, global = -0.000605185, cumulative = -18.9144
Min/max rho:1 1.17746
DILUPBiCGStab:  Solving for epsilon, Initial residual = 0.00254031, Final residual = 4.99583e-05, No Iterations 1
DILUPBiCGStab:  Solving for k, Initial residual = 0.00803231, Final residual = 0.000175336, No Iterations 1

Solving for fluid region porous
DILUPBiCGStab:  Solving for Ux, Initial residual = 0.0166432, Final residual = 0.000250259, No Iterations 1
DILUPBiCGStab:  Solving for Uy, Initial residual = 0.00936168, Final residual = 0.00013744, No Iterations 1
DILUPBiCGStab:  Solving for Uz, Initial residual = 0.0174532, Final residual = 0.000256595, No Iterations 1
DILUPBiCGStab:  Solving for h, Initial residual = 0.0225233, Final residual = 0.000355923, No Iterations 1
Min/max T:373 400
GAMG:  Solving for p_rgh, Initial residual = 0.00397644, Final residual = 2.20694e-05, No Iterations 5
time step continuity errors : sum local = 8.2283, global = -0.0769201, cumulative = -18.9913
Min/max rho:900 900
ExecutionTime = 153.37 s  ClockTime = 153 s

Time = 12


Solving for fluid region air
DILUPBiCGStab:  Solving for Ux, Initial residual = 0.00636031, Final residual = 0.000188694, No Iterations 1
DILUPBiCGStab:  Solving for Uy, Initial residual = 0.0405613, Final residual = 0.000976319, No Iterations 1
DILUPBiCGStab:  Solving for Uz, Initial residual = 0.0107122, Final residual = 0.000278705, No Iterations 1
DILUPBiCGStab:  Solving for h, Initial residual = 0.00500825, Final residual = 0.000156416, No Iterations 1
Min/max T:298.579 373
GAMG:  Solving for p_rgh, Initial residual = 0.0696912, Final residual = 0.000347442, No Iterations 4
time step continuity errors : sum local = 0.00389794, global = 0.000651032, cumulative = -18.9906
Min/max rho:1 1.17669
DILUPBiCGStab:  Solving for epsilon, Initial residual = 0.00219598, Final residual = 4.24237e-05, No Iterations 1
DILUPBiCGStab:  Solving for k, Initial residual = 0.00753572, Final residual = 0.000160783, No Iterations 1

Solving for fluid region porous
DILUPBiCGStab:  Solving for Ux, Initial residual = 0.012064, Final residual = 0.000182636, No Iterations 1
DILUPBiCGStab:  Solving for Uy, Initial residual = 0.00769191, Final residual = 0.000123557, No Iterations 1
DILUPBiCGStab:  Solving for Uz, Initial residual = 0.0127015, Final residual = 0.000190081, No Iterations 1
DILUPBiCGStab:  Solving for h, Initial residual = 0.0201677, Final residual = 0.000320249, No Iterations 1
Min/max T:372.999 400
GAMG:  Solving for p_rgh, Initial residual = 0.00206273, Final residual = 1.77372e-05, No Iterations 2
time step continuity errors : sum local = 9.21198, global = 0.803429, cumulative = -18.1872
Min/max rho:900 900
ExecutionTime = 160.61 s  ClockTime = 161 s

Time = 13


Solving for fluid region air
DILUPBiCGStab:  Solving for Ux, Initial residual = 0.00535178, Final residual = 0.000157451, No Iterations 1
DILUPBiCGStab:  Solving for Uy, Initial residual = 0.0360671, Final residual = 0.000909281, No Iterations 1
DILUPBiCGStab:  Solving for Uz, Initial residual = 0.0100255, Final residual = 0.000259328, No Iterations 1
DILUPBiCGStab:  Solving for h, Initial residual = 0.00443462, Final residual = 0.000136925, No Iterations 1
Min/max T:298.753 373
GAMG:  Solving for p_rgh, Initial residual = 0.0529788, Final residual = 0.000473731, No Iterations 3
time step continuity errors : sum local = 0.00488391, global = 0.000768351, cumulative = -18.1864
Min/max rho:1 1.17597
DILUPBiCGStab:  Solving for epsilon, Initial residual = 0.00197523, Final residual = 3.67562e-05, No Iterations 1
DILUPBiCGStab:  Solving for k, Initial residual = 0.00713468, Final residual = 0.000149967, No Iterations 1

Solving for fluid region porous
DILUPBiCGStab:  Solving for Ux, Initial residual = 0.0109396, Final residual = 0.000168651, No Iterations 1
DILUPBiCGStab:  Solving for Uy, Initial residual = 0.00713994, Final residual = 0.000115043, No Iterations 1
DILUPBiCGStab:  Solving for Uz, Initial residual = 0.0114507, Final residual = 0.000174006, No Iterations 1
DILUPBiCGStab:  Solving for h, Initial residual = 0.0182354, Final residual = 0.000290985, No Iterations 1
Min/max T:372.999 400
GAMG:  Solving for p_rgh, Initial residual = 0.0019128, Final residual = 1.38439e-05, No Iterations 4
time step continuity errors : sum local = 7.17834, global = 0.183599, cumulative = -18.0028
Min/max rho:900 900
ExecutionTime = 167.34 s  ClockTime = 167 s

Time = 14


Solving for fluid region air
DILUPBiCGStab:  Solving for Ux, Initial residual = 0.00493945, Final residual = 0.000146217, No Iterations 1
DILUPBiCGStab:  Solving for Uy, Initial residual = 0.0325173, Final residual = 0.000855079, No Iterations 1
DILUPBiCGStab:  Solving for Uz, Initial residual = 0.00968199, Final residual = 0.000250462, No Iterations 1
DILUPBiCGStab:  Solving for h, Initial residual = 0.00397622, Final residual = 0.000121557, No Iterations 1
Min/max T:298.915 373
GAMG:  Solving for p_rgh, Initial residual = 0.0472178, Final residual = 0.000268842, No Iterations 3
time step continuity errors : sum local = 0.00256456, global = 0.000460067, cumulative = -18.0024
Min/max rho:1 1.1753
DILUPBiCGStab:  Solving for epsilon, Initial residual = 0.00186031, Final residual = 3.31005e-05, No Iterations 1
DILUPBiCGStab:  Solving for k, Initial residual = 0.00682643, Final residual = 0.000142632, No Iterations 1

Solving for fluid region porous
DILUPBiCGStab:  Solving for Ux, Initial residual = 0.0110069, Final residual = 0.000173154, No Iterations 1
DILUPBiCGStab:  Solving for Uy, Initial residual = 0.00680517, Final residual = 0.000101292, No Iterations 1
DILUPBiCGStab:  Solving for Uz, Initial residual = 0.0114303, Final residual = 0.000176176, No Iterations 1
DILUPBiCGStab:  Solving for h, Initial residual = 0.0166249, Final residual = 0.000266768, No Iterations 1
Min/max T:372.999 400
GAMG:  Solving for p_rgh, Initial residual = 0.0018781, Final residual = 1.33742e-05, No Iterations 3
time step continuity errors : sum local = 6.19818, global = 0.219391, cumulative = -17.783
Min/max rho:900 900
ExecutionTime = 174.18 s  ClockTime = 174 s

Time = 15


Solving for fluid region air
DILUPBiCGStab:  Solving for Ux, Initial residual = 0.00474294, Final residual = 0.000140886, No Iterations 1
DILUPBiCGStab:  Solving for Uy, Initial residual = 0.0300881, Final residual = 0.000826918, No Iterations 1
DILUPBiCGStab:  Solving for Uz, Initial residual = 0.00928624, Final residual = 0.000240158, No Iterations 1
DILUPBiCGStab:  Solving for h, Initial residual = 0.00360498, Final residual = 0.000109312, No Iterations 1
Min/max T:299.063 373
GAMG:  Solving for p_rgh, Initial residual = 0.0384041, Final residual = 0.000354236, No Iterations 2
time step continuity errors : sum local = 0.00337241, global = -0.000552985, cumulative = -17.7835
Min/max rho:1 1.17468
DILUPBiCGStab:  Solving for epsilon, Initial residual = 0.00181989, Final residual = 3.11373e-05, No Iterations 1
DILUPBiCGStab:  Solving for k, Initial residual = 0.00658814, Final residual = 0.000137918, No Iterations 1

Solving for fluid region porous
DILUPBiCGStab:  Solving for Ux, Initial residual = 0.0103757, Final residual = 0.000165676, No Iterations 1
DILUPBiCGStab:  Solving for Uy, Initial residual = 0.00642131, Final residual = 9.44765e-05, No Iterations 1
DILUPBiCGStab:  Solving for Uz, Initial residual = 0.0107458, Final residual = 0.00016818, No Iterations 1
DILUPBiCGStab:  Solving for h, Initial residual = 0.0152637, Final residual = 0.000246244, No Iterations 1
Min/max T:372.999 400
GAMG:  Solving for p_rgh, Initial residual = 0.00180369, Final residual = 1.66354e-05, No Iterations 2
time step continuity errors : sum local = 7.43461, global = -0.43869, cumulative = -18.2222
Min/max rho:900 900
ExecutionTime = 180.98 s  ClockTime = 181 s

Time = 16


Solving for fluid region air
DILUPBiCGStab:  Solving for Ux, Initial residual = 0.00460195, Final residual = 0.00013669, No Iterations 1
DILUPBiCGStab:  Solving for Uy, Initial residual = 0.0281962, Final residual = 0.000792672, No Iterations 1
DILUPBiCGStab:  Solving for Uz, Initial residual = 0.00897823, Final residual = 0.00023159, No Iterations 1
DILUPBiCGStab:  Solving for h, Initial residual = 0.00330001, Final residual = 9.941e-05, No Iterations 1
Min/max T:299.198 373
GAMG:  Solving for p_rgh, Initial residual = 0.0325048, Final residual = 0.000200377, No Iterations 3
time step continuity errors : sum local = 0.0019165, global = -0.00027943, cumulative = -18.2225
Min/max rho:1 1.17413
DILUPBiCGStab:  Solving for epsilon, Initial residual = 0.00181773, Final residual = 3.02983e-05, No Iterations 1
DILUPBiCGStab:  Solving for k, Initial residual = 0.00639511, Final residual = 0.000134898, No Iterations 1

Solving for fluid region porous
DILUPBiCGStab:  Solving for Ux, Initial residual = 0.00941112, Final residual = 0.000152084, No Iterations 1
DILUPBiCGStab:  Solving for Uy, Initial residual = 0.0059425, Final residual = 8.80823e-05, No Iterations 1
DILUPBiCGStab:  Solving for Uz, Initial residual = 0.00973201, Final residual = 0.000154506, No Iterations 1
DILUPBiCGStab:  Solving for h, Initial residual = 0.0140992, Final residual = 0.000228633, No Iterations 1
Min/max T:372.999 400
GAMG:  Solving for p_rgh, Initial residual = 0.00164892, Final residual = 8.75252e-06, No Iterations 3
time step continuity errors : sum local = 3.96095, global = -0.00328843, cumulative = -18.2258
Min/max rho:900 900
ExecutionTime = 188.28 s  ClockTime = 188 s

Time = 17


Solving for fluid region air
DILUPBiCGStab:  Solving for Ux, Initial residual = 0.00446709, Final residual = 0.000133111, No Iterations 1
DILUPBiCGStab:  Solving for Uy, Initial residual = 0.0265346, Final residual = 0.000755393, No Iterations 1
DILUPBiCGStab:  Solving for Uz, Initial residual = 0.00874551, Final residual = 0.000224739, No Iterations 1
DILUPBiCGStab:  Solving for h, Initial residual = 0.00304618, Final residual = 9.13015e-05, No Iterations 1
Min/max T:299.319 373
GAMG:  Solving for p_rgh, Initial residual = 0.0288634, Final residual = 0.000280436, No Iterations 2
time step continuity errors : sum local = 0.00273893, global = -0.000253114, cumulative = -18.2261
Min/max rho:1 1.17362
DILUPBiCGStab:  Solving for epsilon, Initial residual = 0.00183573, Final residual = 3.01029e-05, No Iterations 1
DILUPBiCGStab:  Solving for k, Initial residual = 0.00623267, Final residual = 0.000132904, No Iterations 1

Solving for fluid region porous
DILUPBiCGStab:  Solving for Ux, Initial residual = 0.00849098, Final residual = 0.000138789, No Iterations 1
DILUPBiCGStab:  Solving for Uy, Initial residual = 0.0054876, Final residual = 8.25354e-05, No Iterations 1
DILUPBiCGStab:  Solving for Uz, Initial residual = 0.00876762, Final residual = 0.000141052, No Iterations 1
DILUPBiCGStab:  Solving for h, Initial residual = 0.0130923, Final residual = 0.000213331, No Iterations 1
Min/max T:372.999 400
GAMG:  Solving for p_rgh, Initial residual = 0.00149659, Final residual = 3.65481e-06, No Iterations 2
time step continuity errors : sum local = 1.68985, global = 0.0153375, cumulative = -18.2107
Min/max rho:900 900
ExecutionTime = 195.04 s  ClockTime = 195 s

Time = 18


Solving for fluid region air
DILUPBiCGStab:  Solving for Ux, Initial residual = 0.00437619, Final residual = 0.000130525, No Iterations 1
DILUPBiCGStab:  Solving for Uy, Initial residual = 0.0251019, Final residual = 0.000723501, No Iterations 1
DILUPBiCGStab:  Solving for Uz, Initial residual = 0.00859058, Final residual = 0.00022026, No Iterations 1
DILUPBiCGStab:  Solving for h, Initial residual = 0.0028326, Final residual = 8.45885e-05, No Iterations 1
Min/max T:299.428 373
GAMG:  Solving for p_rgh, Initial residual = 0.0262335, Final residual = 0.000134574, No Iterations 3
time step continuity errors : sum local = 0.00131454, global = 9.38028e-05, cumulative = -18.2106
Min/max rho:1 1.17317
DILUPBiCGStab:  Solving for epsilon, Initial residual = 0.00186192, Final residual = 3.02695e-05, No Iterations 1
DILUPBiCGStab:  Solving for k, Initial residual = 0.00609131, Final residual = 0.000131548, No Iterations 1

Solving for fluid region porous
DILUPBiCGStab:  Solving for Ux, Initial residual = 0.00784839, Final residual = 0.000129761, No Iterations 1
DILUPBiCGStab:  Solving for Uy, Initial residual = 0.00512415, Final residual = 7.74289e-05, No Iterations 1
DILUPBiCGStab:  Solving for Uz, Initial residual = 0.00808244, Final residual = 0.000131564, No Iterations 1
DILUPBiCGStab:  Solving for h, Initial residual = 0.0122137, Final residual = 0.000199865, No Iterations 1
Min/max T:372.999 400
GAMG:  Solving for p_rgh, Initial residual = 0.00139793, Final residual = 6.15133e-06, No Iterations 3
time step continuity errors : sum local = 2.84648, global = 0.164161, cumulative = -18.0465
Min/max rho:900 900
ExecutionTime = 201.67 s  ClockTime = 202 s

Time = 19


Solving for fluid region air
DILUPBiCGStab:  Solving for Ux, Initial residual = 0.00430943, Final residual = 0.00012871, No Iterations 1
DILUPBiCGStab:  Solving for Uy, Initial residual = 0.0238758, Final residual = 0.000695091, No Iterations 1
DILUPBiCGStab:  Solving for Uz, Initial residual = 0.00846496, Final residual = 0.000216875, No Iterations 1
DILUPBiCGStab:  Solving for h, Initial residual = 0.00265137, Final residual = 7.8982e-05, No Iterations 1
Min/max T:299.527 373
GAMG:  Solving for p_rgh, Initial residual = 0.0247067, Final residual = 0.000202321, No Iterations 2
time step continuity errors : sum local = 0.00195864, global = 0.000298453, cumulative = -18.0462
Min/max rho:1 1.17277
DILUPBiCGStab:  Solving for epsilon, Initial residual = 0.00188851, Final residual = 3.06184e-05, No Iterations 1
DILUPBiCGStab:  Solving for k, Initial residual = 0.00596809, Final residual = 0.000130653, No Iterations 1

Solving for fluid region porous
DILUPBiCGStab:  Solving for Ux, Initial residual = 0.00738966, Final residual = 0.00012347, No Iterations 1
DILUPBiCGStab:  Solving for Uy, Initial residual = 0.00482347, Final residual = 7.25886e-05, No Iterations 1
DILUPBiCGStab:  Solving for Uz, Initial residual = 0.00758552, Final residual = 0.000124722, No Iterations 1
DILUPBiCGStab:  Solving for h, Initial residual = 0.0114408, Final residual = 0.000187905, No Iterations 1
Min/max T:372.999 400
GAMG:  Solving for p_rgh, Initial residual = 0.00132652, Final residual = 1.20079e-05, No Iterations 2
time step continuity errors : sum local = 5.4911, global = -0.00189519, cumulative = -18.0481
Min/max rho:900 900
ExecutionTime = 208.08 s  ClockTime = 208 s

Time = 20


Solving for fluid region air
DILUPBiCGStab:  Solving for Ux, Initial residual = 0.00425669, Final residual = 0.000127208, No Iterations 1
DILUPBiCGStab:  Solving for Uy, Initial residual = 0.0227843, Final residual = 0.000670434, No Iterations 1
DILUPBiCGStab:  Solving for Uz, Initial residual = 0.0083471, Final residual = 0.00021381, No Iterations 1
DILUPBiCGStab:  Solving for h, Initial residual = 0.00249576, Final residual = 7.42328e-05, No Iterations 1
Min/max T:299.616 373
GAMG:  Solving for p_rgh, Initial residual = 0.0229613, Final residual = 0.000221738, No Iterations 2
time step continuity errors : sum local = 0.0021384, global = 0.000380813, cumulative = -18.0477
Min/max rho:1 1.1724
DILUPBiCGStab:  Solving for epsilon, Initial residual = 0.00191058, Final residual = 3.10662e-05, No Iterations 1
DILUPBiCGStab:  Solving for k, Initial residual = 0.00585968, Final residual = 0.000130077, No Iterations 1

Solving for fluid region porous
DILUPBiCGStab:  Solving for Ux, Initial residual = 0.00692881, Final residual = 0.000116871, No Iterations 1
DILUPBiCGStab:  Solving for Uy, Initial residual = 0.00453083, Final residual = 6.81954e-05, No Iterations 1
DILUPBiCGStab:  Solving for Uz, Initial residual = 0.00709418, Final residual = 0.000117772, No Iterations 1
DILUPBiCGStab:  Solving for h, Initial residual = 0.0107559, Final residual = 0.000177224, No Iterations 1
Min/max T:372.999 400
GAMG:  Solving for p_rgh, Initial residual = 0.00125558, Final residual = 9.80003e-06, No Iterations 2
time step continuity errors : sum local = 4.45445, global = 0.0369212, cumulative = -18.0108
Min/max rho:900 900
ExecutionTime = 214.49 s  ClockTime = 215 s

Time = 21


Solving for fluid region air
DILUPBiCGStab:  Solving for Ux, Initial residual = 0.00421979, Final residual = 0.000126121, No Iterations 1
DILUPBiCGStab:  Solving for Uy, Initial residual = 0.0218035, Final residual = 0.000647411, No Iterations 1
DILUPBiCGStab:  Solving for Uz, Initial residual = 0.00823115, Final residual = 0.000210902, No Iterations 1
DILUPBiCGStab:  Solving for h, Initial residual = 0.00236126, Final residual = 7.01764e-05, No Iterations 1
Min/max T:299.695 373
GAMG:  Solving for p_rgh, Initial residual = 0.0215051, Final residual = 8.52662e-05, No Iterations 3
time step continuity errors : sum local = 0.000821511, global = 0.000137367, cumulative = -18.0106
Min/max rho:1 1.17207
DILUPBiCGStab:  Solving for epsilon, Initial residual = 0.00192795, Final residual = 3.1544e-05, No Iterations 1
DILUPBiCGStab:  Solving for k, Initial residual = 0.00576194, Final residual = 0.000129675, No Iterations 1

Solving for fluid region porous
DILUPBiCGStab:  Solving for Ux, Initial residual = 0.00649274, Final residual = 0.000110464, No Iterations 1
DILUPBiCGStab:  Solving for Uy, Initial residual = 0.00425369, Final residual = 6.41486e-05, No Iterations 1
DILUPBiCGStab:  Solving for Uz, Initial residual = 0.00663291, Final residual = 0.000111102, No Iterations 1
DILUPBiCGStab:  Solving for h, Initial residual = 0.0101451, Final residual = 0.000167672, No Iterations 1
Min/max T:372.999 400
GAMG:  Solving for p_rgh, Initial residual = 0.00118647, Final residual = 7.24855e-06, No Iterations 2
time step continuity errors : sum local = 3.28472, global = 0.0210114, cumulative = -17.9896
Min/max rho:900 900
ExecutionTime = 221.1 s  ClockTime = 221 s

Time = 22


Solving for fluid region air
DILUPBiCGStab:  Solving for Ux, Initial residual = 0.00420744, Final residual = 0.000125813, No Iterations 1
DILUPBiCGStab:  Solving for Uy, Initial residual = 0.0208776, Final residual = 0.000624245, No Iterations 1
DILUPBiCGStab:  Solving for Uz, Initial residual = 0.00810045, Final residual = 0.000207748, No Iterations 1
DILUPBiCGStab:  Solving for h, Initial residual = 0.00224419, Final residual = 6.66799e-05, No Iterations 1
Min/max T:299.767 373
GAMG:  Solving for p_rgh, Initial residual = 0.0203486, Final residual = 0.000187722, No Iterations 2
time step continuity errors : sum local = 0.00180726, global = -5.6888e-05, cumulative = -17.9897
Min/max rho:1 1.17177
DILUPBiCGStab:  Solving for epsilon, Initial residual = 0.00194032, Final residual = 3.20125e-05, No Iterations 1
DILUPBiCGStab:  Solving for k, Initial residual = 0.00567223, Final residual = 0.000129365, No Iterations 1

Solving for fluid region porous
DILUPBiCGStab:  Solving for Ux, Initial residual = 0.00608861, Final residual = 0.000104439, No Iterations 1
DILUPBiCGStab:  Solving for Uy, Initial residual = 0.00399389, Final residual = 6.03982e-05, No Iterations 1
DILUPBiCGStab:  Solving for Uz, Initial residual = 0.00620552, Final residual = 0.000104834, No Iterations 1
DILUPBiCGStab:  Solving for h, Initial residual = 0.00959727, Final residual = 0.000159059, No Iterations 1
Min/max T:372.999 400
GAMG:  Solving for p_rgh, Initial residual = 0.00112107, Final residual = 6.51976e-06, No Iterations 2
time step continuity errors : sum local = 2.94946, global = -0.00271865, cumulative = -17.9924
Min/max rho:900 900
ExecutionTime = 227.64 s  ClockTime = 228 s

Time = 23


Solving for fluid region air
DILUPBiCGStab:  Solving for Ux, Initial residual = 0.00418328, Final residual = 0.000125123, No Iterations 1
DILUPBiCGStab:  Solving for Uy, Initial residual = 0.0200596, Final residual = 0.000603709, No Iterations 1
DILUPBiCGStab:  Solving for Uz, Initial residual = 0.00800374, Final residual = 0.000205467, No Iterations 1
DILUPBiCGStab:  Solving for h, Initial residual = 0.00214131, Final residual = 6.36337e-05, No Iterations 1
Min/max T:299.832 373
GAMG:  Solving for p_rgh, Initial residual = 0.0191756, Final residual = 8.05479e-05, No Iterations 3
time step continuity errors : sum local = 0.000776297, global = -0.000137227, cumulative = -17.9925
Min/max rho:1 1.1715
DILUPBiCGStab:  Solving for epsilon, Initial residual = 0.00194743, Final residual = 3.24567e-05, No Iterations 1
DILUPBiCGStab:  Solving for k, Initial residual = 0.00558794, Final residual = 0.000129081, No Iterations 1

Solving for fluid region porous
DILUPBiCGStab:  Solving for Ux, Initial residual = 0.00571946, Final residual = 9.88763e-05, No Iterations 1
DILUPBiCGStab:  Solving for Uy, Initial residual = 0.00375273, Final residual = 5.69157e-05, No Iterations 1
DILUPBiCGStab:  Solving for Uz, Initial residual = 0.00581576, Final residual = 9.90531e-05, No Iterations 1
DILUPBiCGStab:  Solving for h, Initial residual = 0.00910328, Final residual = 0.000151253, No Iterations 1
Min/max T:372.999 400
GAMG:  Solving for p_rgh, Initial residual = 0.00106055, Final residual = 7.00874e-06, No Iterations 2
time step continuity errors : sum local = 3.1659, global = 0.00578187, cumulative = -17.9867
Min/max rho:900 900
ExecutionTime = 234.17 s  ClockTime = 234 s

Time = 24


Solving for fluid region air
DILUPBiCGStab:  Solving for Ux, Initial residual = 0.00418014, Final residual = 0.000125172, No Iterations 1
DILUPBiCGStab:  Solving for Uy, Initial residual = 0.0192934, Final residual = 0.000584014, No Iterations 1
DILUPBiCGStab:  Solving for Uz, Initial residual = 0.00788538, Final residual = 0.000202826, No Iterations 1
DILUPBiCGStab:  Solving for h, Initial residual = 0.00205067, Final residual = 6.09712e-05, No Iterations 1
Min/max T:299.893 373
GAMG:  Solving for p_rgh, Initial residual = 0.0182838, Final residual = 0.000165925, No Iterations 2
time step continuity errors : sum local = 0.00160201, global = -0.000172196, cumulative = -17.9869
Min/max rho:1 1.17125
DILUPBiCGStab:  Solving for epsilon, Initial residual = 0.00194943, Final residual = 3.28735e-05, No Iterations 1
DILUPBiCGStab:  Solving for k, Initial residual = 0.00550816, Final residual = 0.000128778, No Iterations 1

Solving for fluid region porous
DILUPBiCGStab:  Solving for Ux, Initial residual = 0.005386, Final residual = 9.38011e-05, No Iterations 1
DILUPBiCGStab:  Solving for Uy, Initial residual = 0.00353039, Final residual = 5.36782e-05, No Iterations 1
DILUPBiCGStab:  Solving for Uz, Initial residual = 0.00546406, Final residual = 9.37789e-05, No Iterations 1
DILUPBiCGStab:  Solving for h, Initial residual = 0.00865576, Final residual = 0.000144152, No Iterations 1
Min/max T:372.999 400
GAMG:  Solving for p_rgh, Initial residual = 0.00100498, Final residual = 7.3551e-06, No Iterations 2
time step continuity errors : sum local = 3.31602, global = 0.00946973, cumulative = -17.9774
Min/max rho:900 900
ExecutionTime = 240.8 s  ClockTime = 241 s

Time = 25


Solving for fluid region air
DILUPBiCGStab:  Solving for Ux, Initial residual = 0.00416731, Final residual = 0.0001249, No Iterations 1
DILUPBiCGStab:  Solving for Uy, Initial residual = 0.0185977, Final residual = 0.000565997, No Iterations 1
DILUPBiCGStab:  Solving for Uz, Initial residual = 0.00779564, Final residual = 0.0002009, No Iterations 1
DILUPBiCGStab:  Solving for h, Initial residual = 0.00197007, Final residual = 5.86173e-05, No Iterations 1
Min/max T:299.936 373
GAMG:  Solving for p_rgh, Initial residual = 0.0173507, Final residual = 6.66665e-05, No Iterations 3
time step continuity errors : sum local = 0.000644732, global = -7.29262e-05, cumulative = -17.9775
Min/max rho:1 1.17108
DILUPBiCGStab:  Solving for epsilon, Initial residual = 0.00194655, Final residual = 3.32673e-05, No Iterations 1
DILUPBiCGStab:  Solving for k, Initial residual = 0.00543166, Final residual = 0.000128455, No Iterations 1

Solving for fluid region porous
DILUPBiCGStab:  Solving for Ux, Initial residual = 0.00508414, Final residual = 8.91649e-05, No Iterations 1
DILUPBiCGStab:  Solving for Uy, Initial residual = 0.00332506, Final residual = 5.06628e-05, No Iterations 1
DILUPBiCGStab:  Solving for Uz, Initial residual = 0.00514595, Final residual = 8.89549e-05, No Iterations 1
DILUPBiCGStab:  Solving for h, Initial residual = 0.00824857, Final residual = 0.000137678, No Iterations 1
Min/max T:372.999 400
GAMG:  Solving for p_rgh, Initial residual = 0.000953643, Final residual = 7.11952e-06, No Iterations 2
time step continuity errors : sum local = 3.20249, global = 0.00923019, cumulative = -17.9683
Min/max rho:900 900
ExecutionTime = 248.03 s  ClockTime = 248 s

Time = 26


Solving for fluid region air
DILUPBiCGStab:  Solving for Ux, Initial residual = 0.00417397, Final residual = 0.000125296, No Iterations 1
DILUPBiCGStab:  Solving for Uy, Initial residual = 0.0179358, Final residual = 0.000548336, No Iterations 1
DILUPBiCGStab:  Solving for Uz, Initial residual = 0.00768102, Final residual = 0.000198509, No Iterations 1
DILUPBiCGStab:  Solving for h, Initial residual = 0.00189835, Final residual = 5.65317e-05, No Iterations 1
Min/max T:299.95 373
GAMG:  Solving for p_rgh, Initial residual = 0.0166235, Final residual = 0.000165901, No Iterations 2
time step continuity errors : sum local = 0.0016068, global = 4.95769e-05, cumulative = -17.9682
Min/max rho:1 1.17102
DILUPBiCGStab:  Solving for epsilon, Initial residual = 0.00193912, Final residual = 3.36097e-05, No Iterations 1
DILUPBiCGStab:  Solving for k, Initial residual = 0.00535747, Final residual = 0.000128097, No Iterations 1

Solving for fluid region porous
DILUPBiCGStab:  Solving for Ux, Initial residual = 0.00480722, Final residual = 8.4865e-05, No Iterations 1
DILUPBiCGStab:  Solving for Uy, Initial residual = 0.00313405, Final residual = 4.78493e-05, No Iterations 1
DILUPBiCGStab:  Solving for Uz, Initial residual = 0.00485469, Final residual = 8.44869e-05, No Iterations 1
DILUPBiCGStab:  Solving for h, Initial residual = 0.00787664, Final residual = 0.000131766, No Iterations 1
Min/max T:372.999 400
GAMG:  Solving for p_rgh, Initial residual = 0.000905591, Final residual = 6.53478e-06, No Iterations 2
time step continuity errors : sum local = 2.93289, global = 0.00757511, cumulative = -17.9607
Min/max rho:900 900
ExecutionTime = 254.78 s  ClockTime = 255 s

Time = 27


Solving for fluid region air
DILUPBiCGStab:  Solving for Ux, Initial residual = 0.00417031, Final residual = 0.000125298, No Iterations 1
DILUPBiCGStab:  Solving for Uy, Initial residual = 0.0173311, Final residual = 0.00053197, No Iterations 1
DILUPBiCGStab:  Solving for Uz, Initial residual = 0.00759277, Final residual = 0.000196748, No Iterations 1
DILUPBiCGStab:  Solving for h, Initial residual = 0.00183397, Final residual = 5.46706e-05, No Iterations 1
Min/max T:299.958 373
GAMG:  Solving for p_rgh, Initial residual = 0.0158777, Final residual = 6.4491e-05, No Iterations 3
time step continuity errors : sum local = 0.000625331, global = 9.6253e-05, cumulative = -17.9606
Min/max rho:1 1.17098
DILUPBiCGStab:  Solving for epsilon, Initial residual = 0.00192762, Final residual = 3.38836e-05, No Iterations 1
DILUPBiCGStab:  Solving for k, Initial residual = 0.00528541, Final residual = 0.000127704, No Iterations 1

Solving for fluid region porous
DILUPBiCGStab:  Solving for Ux, Initial residual = 0.00455039, Final residual = 8.08356e-05, No Iterations 1
DILUPBiCGStab:  Solving for Uy, Initial residual = 0.00295541, Final residual = 4.52192e-05, No Iterations 1
DILUPBiCGStab:  Solving for Uz, Initial residual = 0.00458524, Final residual = 8.03109e-05, No Iterations 1
DILUPBiCGStab:  Solving for h, Initial residual = 0.0075357, Final residual = 0.00012633, No Iterations 1
Min/max T:372.999 400
GAMG:  Solving for p_rgh, Initial residual = 0.000860263, Final residual = 5.95676e-06, No Iterations 2
time step continuity errors : sum local = 2.66829, global = 0.00581735, cumulative = -17.9547
Min/max rho:900 900
ExecutionTime = 261.88 s  ClockTime = 262 s

Time = 28


Solving for fluid region air
DILUPBiCGStab:  Solving for Ux, Initial residual = 0.0041871, Final residual = 0.000125977, No Iterations 1
DILUPBiCGStab:  Solving for Uy, Initial residual = 0.0167487, Final residual = 0.000515652, No Iterations 1
DILUPBiCGStab:  Solving for Uz, Initial residual = 0.00747653, Final residual = 0.000194404, No Iterations 1
DILUPBiCGStab:  Solving for h, Initial residual = 0.00177622, Final residual = 5.30069e-05, No Iterations 1
Min/max T:299.959 373
GAMG:  Solving for p_rgh, Initial residual = 0.0153453, Final residual = 5.14579e-05, No Iterations 3
time step continuity errors : sum local = 0.000499002, global = 8.64732e-05, cumulative = -17.9547
Min/max rho:1 1.17098
DILUPBiCGStab:  Solving for epsilon, Initial residual = 0.00191207, Final residual = 3.40953e-05, No Iterations 1
DILUPBiCGStab:  Solving for k, Initial residual = 0.00521412, Final residual = 0.000127228, No Iterations 1

Solving for fluid region porous
DILUPBiCGStab:  Solving for Ux, Initial residual = 0.00431143, Final residual = 7.70512e-05, No Iterations 1
DILUPBiCGStab:  Solving for Uy, Initial residual = 0.00278818, Final residual = 4.27574e-05, No Iterations 1
DILUPBiCGStab:  Solving for Uz, Initial residual = 0.004335, Final residual = 7.63976e-05, No Iterations 1
DILUPBiCGStab:  Solving for h, Initial residual = 0.00722211, Final residual = 0.00012133, No Iterations 1
Min/max T:372.999 400
GAMG:  Solving for p_rgh, Initial residual = 0.000817453, Final residual = 5.57692e-06, No Iterations 2
time step continuity errors : sum local = 2.49396, global = 0.00505079, cumulative = -17.9496
Min/max rho:900 900
ExecutionTime = 268.9 s  ClockTime = 269 s

Time = 29


Solving for fluid region air
DILUPBiCGStab:  Solving for Ux, Initial residual = 0.00419284, Final residual = 0.000126302, No Iterations 1
DILUPBiCGStab:  Solving for Uy, Initial residual = 0.0162129, Final residual = 0.000500658, No Iterations 1
DILUPBiCGStab:  Solving for Uz, Initial residual = 0.00737979, Final residual = 0.000192567, No Iterations 1
DILUPBiCGStab:  Solving for h, Initial residual = 0.00172403, Final residual = 5.15076e-05, No Iterations 1
Min/max T:299.958 373
GAMG:  Solving for p_rgh, Initial residual = 0.0148039, Final residual = 0.000145189, No Iterations 2
time step continuity errors : sum local = 0.00140798, global = 0.00010203, cumulative = -17.9495
Min/max rho:1 1.17098
DILUPBiCGStab:  Solving for epsilon, Initial residual = 0.00189304, Final residual = 3.42373e-05, No Iterations 1
DILUPBiCGStab:  Solving for k, Initial residual = 0.00514397, Final residual = 0.000126691, No Iterations 1

Solving for fluid region porous
DILUPBiCGStab:  Solving for Ux, Initial residual = 0.00408931, Final residual = 7.35009e-05, No Iterations 1
DILUPBiCGStab:  Solving for Uy, Initial residual = 0.00263181, Final residual = 4.04514e-05, No Iterations 1
DILUPBiCGStab:  Solving for Uz, Initial residual = 0.00410283, Final residual = 7.27364e-05, No Iterations 1
DILUPBiCGStab:  Solving for h, Initial residual = 0.00693284, Final residual = 0.000116722, No Iterations 1
Min/max T:372.999 400
GAMG:  Solving for p_rgh, Initial residual = 0.000777112, Final residual = 5.35478e-06, No Iterations 2
time step continuity errors : sum local = 2.39096, global = 0.00483462, cumulative = -17.9447
Min/max rho:900 900
ExecutionTime = 275.58 s  ClockTime = 276 s

Time = 30


Solving for fluid region air
DILUPBiCGStab:  Solving for Ux, Initial residual = 0.00418811, Final residual = 0.000126315, No Iterations 1
DILUPBiCGStab:  Solving for Uy, Initial residual = 0.0157235, Final residual = 0.000486939, No Iterations 1
DILUPBiCGStab:  Solving for Uz, Initial residual = 0.00729801, Final residual = 0.000191039, No Iterations 1
DILUPBiCGStab:  Solving for h, Initial residual = 0.00167666, Final residual = 5.01566e-05, No Iterations 1
Min/max T:299.958 373
GAMG:  Solving for p_rgh, Initial residual = 0.0142721, Final residual = 6.16333e-05, No Iterations 3
time step continuity errors : sum local = 0.000598348, global = 4.41969e-05, cumulative = -17.9446
Min/max rho:1 1.17099
DILUPBiCGStab:  Solving for epsilon, Initial residual = 0.00187079, Final residual = 3.43144e-05, No Iterations 1
DILUPBiCGStab:  Solving for k, Initial residual = 0.00507426, Final residual = 0.00012611, No Iterations 1

Solving for fluid region porous
DILUPBiCGStab:  Solving for Ux, Initial residual = 0.00388303, Final residual = 7.01746e-05, No Iterations 1
DILUPBiCGStab:  Solving for Uy, Initial residual = 0.00248572, Final residual = 3.829e-05, No Iterations 1
DILUPBiCGStab:  Solving for Uz, Initial residual = 0.00388765, Final residual = 6.93149e-05, No Iterations 1
DILUPBiCGStab:  Solving for h, Initial residual = 0.00666523, Final residual = 0.000112453, No Iterations 1
Min/max T:372.999 400
GAMG:  Solving for p_rgh, Initial residual = 0.000739113, Final residual = 5.16272e-06, No Iterations 2
time step continuity errors : sum local = 2.30178, global = 0.00452779, cumulative = -17.9401
Min/max rho:900 900
ExecutionTime = 282.21 s  ClockTime = 283 s

Time = 31


Solving for fluid region air
DILUPBiCGStab:  Solving for Ux, Initial residual = 0.00420463, Final residual = 0.000127044, No Iterations 1
DILUPBiCGStab:  Solving for Uy, Initial residual = 0.0152539, Final residual = 0.000473448, No Iterations 1
DILUPBiCGStab:  Solving for Uz, Initial residual = 0.00718108, Final residual = 0.000188745, No Iterations 1
DILUPBiCGStab:  Solving for h, Initial residual = 0.00163373, Final residual = 4.89336e-05, No Iterations 1
Min/max T:299.957 373
GAMG:  Solving for p_rgh, Initial residual = 0.0139147, Final residual = 5.10753e-05, No Iterations 3
time step continuity errors : sum local = 0.000496245, global = 5.07735e-06, cumulative = -17.9401
Min/max rho:1 1.17099
DILUPBiCGStab:  Solving for epsilon, Initial residual = 0.00184556, Final residual = 3.43266e-05, No Iterations 1
DILUPBiCGStab:  Solving for k, Initial residual = 0.0050048, Final residual = 0.000125447, No Iterations 1

Solving for fluid region porous
DILUPBiCGStab:  Solving for Ux, Initial residual = 0.00369107, Final residual = 6.70547e-05, No Iterations 1
DILUPBiCGStab:  Solving for Uy, Initial residual = 0.00234914, Final residual = 3.62621e-05, No Iterations 1
DILUPBiCGStab:  Solving for Uz, Initial residual = 0.00368781, Final residual = 6.61132e-05, No Iterations 1
DILUPBiCGStab:  Solving for h, Initial residual = 0.006417, Final residual = 0.000108487, No Iterations 1
Min/max T:372.999 400
GAMG:  Solving for p_rgh, Initial residual = 0.000703272, Final residual = 4.93018e-06, No Iterations 2
time step continuity errors : sum local = 2.1949, global = 0.00399439, cumulative = -17.9361
Min/max rho:900 900
ExecutionTime = 288.76 s  ClockTime = 289 s

Time = 32


Solving for fluid region air
DILUPBiCGStab:  Solving for Ux, Initial residual = 0.00421289, Final residual = 0.000127469, No Iterations 1
DILUPBiCGStab:  Solving for Uy, Initial residual = 0.0148138, Final residual = 0.000460823, No Iterations 1
DILUPBiCGStab:  Solving for Uz, Initial residual = 0.00707754, Final residual = 0.000186779, No Iterations 1
DILUPBiCGStab:  Solving for h, Initial residual = 0.00159451, Final residual = 4.78189e-05, No Iterations 1
Min/max T:299.957 373
GAMG:  Solving for p_rgh, Initial residual = 0.0135082, Final residual = 0.000131325, No Iterations 2
time step continuity errors : sum local = 0.00127737, global = -1.96837e-05, cumulative = -17.9361
Min/max rho:1 1.17099
DILUPBiCGStab:  Solving for epsilon, Initial residual = 0.00181783, Final residual = 3.42761e-05, No Iterations 1
DILUPBiCGStab:  Solving for k, Initial residual = 0.00493496, Final residual = 0.000124684, No Iterations 1

Solving for fluid region porous
DILUPBiCGStab:  Solving for Ux, Initial residual = 0.00351179, Final residual = 6.41193e-05, No Iterations 1
DILUPBiCGStab:  Solving for Uy, Initial residual = 0.00222122, Final residual = 3.43575e-05, No Iterations 1
DILUPBiCGStab:  Solving for Uz, Initial residual = 0.00350175, Final residual = 6.31086e-05, No Iterations 1
DILUPBiCGStab:  Solving for h, Initial residual = 0.00618616, Final residual = 0.000104786, No Iterations 1
Min/max T:372.999 400
GAMG:  Solving for p_rgh, Initial residual = 0.000669403, Final residual = 4.66438e-06, No Iterations 2
time step continuity errors : sum local = 2.07367, global = 0.00330661, cumulative = -17.9328
Min/max rho:900 900
ExecutionTime = 295.36 s  ClockTime = 296 s

Time = 33


Solving for fluid region air
DILUPBiCGStab:  Solving for Ux, Initial residual = 0.00420957, Final residual = 0.000127534, No Iterations 1
DILUPBiCGStab:  Solving for Uy, Initial residual = 0.0144112, Final residual = 0.000449133, No Iterations 1
DILUPBiCGStab:  Solving for Uz, Initial residual = 0.00698925, Final residual = 0.000185184, No Iterations 1
DILUPBiCGStab:  Solving for h, Initial residual = 0.00155859, Final residual = 4.67979e-05, No Iterations 1
Min/max T:299.957 373
GAMG:  Solving for p_rgh, Initial residual = 0.0130958, Final residual = 5.43488e-05, No Iterations 3
time step continuity errors : sum local = 0.000529392, global = -4.5209e-05, cumulative = -17.9329
Min/max rho:1 1.17099
DILUPBiCGStab:  Solving for epsilon, Initial residual = 0.0017878, Final residual = 3.41661e-05, No Iterations 1
DILUPBiCGStab:  Solving for k, Initial residual = 0.00486454, Final residual = 0.000123848, No Iterations 1

Solving for fluid region porous
DILUPBiCGStab:  Solving for Ux, Initial residual = 0.00334393, Final residual = 6.13502e-05, No Iterations 1
DILUPBiCGStab:  Solving for Uy, Initial residual = 0.00210121, Final residual = 3.25671e-05, No Iterations 1
DILUPBiCGStab:  Solving for Uz, Initial residual = 0.00332795, Final residual = 6.02804e-05, No Iterations 1
DILUPBiCGStab:  Solving for h, Initial residual = 0.005971, Final residual = 0.000101328, No Iterations 1
Min/max T:372.999 400
GAMG:  Solving for p_rgh, Initial residual = 0.000637338, Final residual = 4.40278e-06, No Iterations 2
time step continuity errors : sum local = 1.95482, global = 0.00259696, cumulative = -17.9303
Min/max rho:900 900
ExecutionTime = 302.03 s  ClockTime = 302 s

Time = 34


Solving for fluid region air
DILUPBiCGStab:  Solving for Ux, Initial residual = 0.00422412, Final residual = 0.000128214, No Iterations 1
DILUPBiCGStab:  Solving for Uy, Initial residual = 0.0140177, Final residual = 0.000437485, No Iterations 1
DILUPBiCGStab:  Solving for Uz, Initial residual = 0.00687118, Final residual = 0.000182886, No Iterations 1
DILUPBiCGStab:  Solving for h, Initial residual = 0.00152576, Final residual = 4.58623e-05, No Iterations 1
Min/max T:299.956 373
GAMG:  Solving for p_rgh, Initial residual = 0.0128254, Final residual = 4.52122e-05, No Iterations 3
time step continuity errors : sum local = 0.000441021, global = -4.20405e-05, cumulative = -17.9303
Min/max rho:1 1.17099
DILUPBiCGStab:  Solving for epsilon, Initial residual = 0.00175549, Final residual = 3.39949e-05, No Iterations 1
DILUPBiCGStab:  Solving for k, Initial residual = 0.0047937, Final residual = 0.000122937, No Iterations 1

Solving for fluid region porous
DILUPBiCGStab:  Solving for Ux, Initial residual = 0.00318643, Final residual = 5.87334e-05, No Iterations 1
DILUPBiCGStab:  Solving for Uy, Initial residual = 0.00198854, Final residual = 3.08828e-05, No Iterations 1
DILUPBiCGStab:  Solving for Uz, Initial residual = 0.00316524, Final residual = 5.76114e-05, No Iterations 1
DILUPBiCGStab:  Solving for h, Initial residual = 0.00577004, Final residual = 9.80904e-05, No Iterations 1
Min/max T:372.999 400
GAMG:  Solving for p_rgh, Initial residual = 0.000606959, Final residual = 4.16994e-06, No Iterations 2
time step continuity errors : sum local = 1.84919, global = 0.00196427, cumulative = -17.9283
Min/max rho:900 900
ExecutionTime = 308.81 s  ClockTime = 309 s

Time = 35


Solving for fluid region air
DILUPBiCGStab:  Solving for Ux, Initial residual = 0.00422744, Final residual = 0.000128522, No Iterations 1
DILUPBiCGStab:  Solving for Uy, Initial residual = 0.013654, Final residual = 0.000427133, No Iterations 1
DILUPBiCGStab:  Solving for Uz, Initial residual = 0.00676781, Final residual = 0.000180947, No Iterations 1
DILUPBiCGStab:  Solving for h, Initial residual = 0.00149554, Final residual = 4.50002e-05, No Iterations 1
Min/max T:299.956 373
GAMG:  Solving for p_rgh, Initial residual = 0.0124984, Final residual = 0.000122806, No Iterations 2
time step continuity errors : sum local = 0.00119977, global = -2.34029e-05, cumulative = -17.9284
Min/max rho:1 1.17099
DILUPBiCGStab:  Solving for epsilon, Initial residual = 0.00172108, Final residual = 3.37691e-05, No Iterations 1
DILUPBiCGStab:  Solving for k, Initial residual = 0.00472226, Final residual = 0.000121953, No Iterations 1

Solving for fluid region porous
DILUPBiCGStab:  Solving for Ux, Initial residual = 0.0030386, Final residual = 5.62591e-05, No Iterations 1
DILUPBiCGStab:  Solving for Uy, Initial residual = 0.00188272, Final residual = 2.92975e-05, No Iterations 1
DILUPBiCGStab:  Solving for Uz, Initial residual = 0.00301268, Final residual = 5.5092e-05, No Iterations 1
DILUPBiCGStab:  Solving for h, Initial residual = 0.00558201, Final residual = 9.50491e-05, No Iterations 1
Min/max T:372.999 400
GAMG:  Solving for p_rgh, Initial residual = 0.00057817, Final residual = 3.96572e-06, No Iterations 2
time step continuity errors : sum local = 1.75662, global = 0.00141623, cumulative = -17.9269
Min/max rho:900 900
ExecutionTime = 315.77 s  ClockTime = 316 s

Time = 36


Solving for fluid region air
DILUPBiCGStab:  Solving for Ux, Initial residual = 0.00421795, Final residual = 0.000128431, No Iterations 1
DILUPBiCGStab:  Solving for Uy, Initial residual = 0.0133156, Final residual = 0.000417585, No Iterations 1
DILUPBiCGStab:  Solving for Uz, Initial residual = 0.00667874, Final residual = 0.00017933, No Iterations 1
DILUPBiCGStab:  Solving for h, Initial residual = 0.00146761, Final residual = 4.42036e-05, No Iterations 1
Min/max T:299.956 373
GAMG:  Solving for p_rgh, Initial residual = 0.0121841, Final residual = 5.2069e-05, No Iterations 3
time step continuity errors : sum local = 0.000509497, global = -2.25733e-05, cumulative = -17.927
Min/max rho:1 1.17099
DILUPBiCGStab:  Solving for epsilon, Initial residual = 0.00168463, Final residual = 3.34912e-05, No Iterations 1
DILUPBiCGStab:  Solving for k, Initial residual = 0.00465051, Final residual = 0.000120886, No Iterations 1

Solving for fluid region porous
DILUPBiCGStab:  Solving for Ux, Initial residual = 0.00289965, Final residual = 5.39173e-05, No Iterations 1
DILUPBiCGStab:  Solving for Uy, Initial residual = 0.00178327, Final residual = 2.78044e-05, No Iterations 1
DILUPBiCGStab:  Solving for Uz, Initial residual = 0.00286947, Final residual = 5.27128e-05, No Iterations 1
DILUPBiCGStab:  Solving for h, Initial residual = 0.00540573, Final residual = 9.21892e-05, No Iterations 1
Min/max T:372.999 400
GAMG:  Solving for p_rgh, Initial residual = 0.000550887, Final residual = 3.77747e-06, No Iterations 2
time step continuity errors : sum local = 1.67143, global = 0.000903045, cumulative = -17.9261
Min/max rho:900 900
ExecutionTime = 322.84 s  ClockTime = 323 s

Time = 37


Solving for fluid region air
DILUPBiCGStab:  Solving for Ux, Initial residual = 0.00422461, Final residual = 0.000128877, No Iterations 1
DILUPBiCGStab:  Solving for Uy, Initial residual = 0.0129875, Final residual = 0.00040837, No Iterations 1
DILUPBiCGStab:  Solving for Uz, Initial residual = 0.00656257, Final residual = 0.000177043, No Iterations 1
DILUPBiCGStab:  Solving for h, Initial residual = 0.00144189, Final residual = 4.34697e-05, No Iterations 1
Min/max T:299.956 373
GAMG:  Solving for p_rgh, Initial residual = 0.0119736, Final residual = 4.41351e-05, No Iterations 3
time step continuity errors : sum local = 0.000432471, global = -1.10121e-05, cumulative = -17.9261
Min/max rho:1 1.17099
DILUPBiCGStab:  Solving for epsilon, Initial residual = 0.00164647, Final residual = 3.3166e-05, No Iterations 1
DILUPBiCGStab:  Solving for k, Initial residual = 0.0045784, Final residual = 0.000119759, No Iterations 1

Solving for fluid region porous
DILUPBiCGStab:  Solving for Ux, Initial residual = 0.0027689, Final residual = 5.16985e-05, No Iterations 1
DILUPBiCGStab:  Solving for Uy, Initial residual = 0.00168979, Final residual = 2.63976e-05, No Iterations 1
DILUPBiCGStab:  Solving for Uz, Initial residual = 0.00273486, Final residual = 5.04628e-05, No Iterations 1
DILUPBiCGStab:  Solving for h, Initial residual = 0.00524016, Final residual = 8.94958e-05, No Iterations 1
Min/max T:372.999 400
GAMG:  Solving for p_rgh, Initial residual = 0.000525012, Final residual = 3.59533e-06, No Iterations 2
time step continuity errors : sum local = 1.5892, global = 0.000393485, cumulative = -17.9257
Min/max rho:900 900
ExecutionTime = 329.91 s  ClockTime = 330 s

Time = 38


Solving for fluid region air
DILUPBiCGStab:  Solving for Ux, Initial residual = 0.00422117, Final residual = 0.000128989, No Iterations 1
DILUPBiCGStab:  Solving for Uy, Initial residual = 0.0126786, Final residual = 0.000400002, No Iterations 1
DILUPBiCGStab:  Solving for Uz, Initial residual = 0.00646123, Final residual = 0.000175104, No Iterations 1
DILUPBiCGStab:  Solving for h, Initial residual = 0.00141794, Final residual = 4.27884e-05, No Iterations 1
Min/max T:299.956 373
GAMG:  Solving for p_rgh, Initial residual = 0.0117204, Final residual = 0.000117135, No Iterations 2
time step continuity errors : sum local = 0.0011494, global = 5.4412e-06, cumulative = -17.9257
Min/max rho:1 1.17099
DILUPBiCGStab:  Solving for epsilon, Initial residual = 0.00160693, Final residual = 3.27968e-05, No Iterations 1
DILUPBiCGStab:  Solving for k, Initial residual = 0.00450586, Final residual = 0.000118567, No Iterations 1

Solving for fluid region porous
DILUPBiCGStab:  Solving for Ux, Initial residual = 0.00264569, Final residual = 4.9593e-05, No Iterations 1
DILUPBiCGStab:  Solving for Uy, Initial residual = 0.00160184, Final residual = 2.50713e-05, No Iterations 1
DILUPBiCGStab:  Solving for Uz, Initial residual = 0.00260821, Final residual = 4.83326e-05, No Iterations 1
DILUPBiCGStab:  Solving for h, Initial residual = 0.0050844, Final residual = 8.69568e-05, No Iterations 1
Min/max T:372.999 400
GAMG:  Solving for p_rgh, Initial residual = 0.000500468, Final residual = 3.41746e-06, No Iterations 2
time step continuity errors : sum local = 1.50911, global = -0.000116849, cumulative = -17.9258
Min/max rho:900 900
ExecutionTime = 336.97 s  ClockTime = 337 s

Time = 39


Solving for fluid region air
DILUPBiCGStab:  Solving for Ux, Initial residual = 0.00420654, Final residual = 0.000128723, No Iterations 1
DILUPBiCGStab:  Solving for Uy, Initial residual = 0.0123931, Final residual = 0.000392634, No Iterations 1
DILUPBiCGStab:  Solving for Uz, Initial residual = 0.0063739, Final residual = 0.000173485, No Iterations 1
DILUPBiCGStab:  Solving for h, Initial residual = 0.00139556, Final residual = 4.21542e-05, No Iterations 1
Min/max T:299.956 373
GAMG:  Solving for p_rgh, Initial residual = 0.0114734, Final residual = 4.94188e-05, No Iterations 3
time step continuity errors : sum local = 0.000485656, global = -1.30607e-05, cumulative = -17.9258
Min/max rho:1 1.17099
DILUPBiCGStab:  Solving for epsilon, Initial residual = 0.00156625, Final residual = 3.23892e-05, No Iterations 1
DILUPBiCGStab:  Solving for k, Initial residual = 0.00443327, Final residual = 0.000117317, No Iterations 1

Solving for fluid region porous
DILUPBiCGStab:  Solving for Ux, Initial residual = 0.00252945, Final residual = 4.75936e-05, No Iterations 1
DILUPBiCGStab:  Solving for Uy, Initial residual = 0.00151905, Final residual = 2.38202e-05, No Iterations 1
DILUPBiCGStab:  Solving for Uz, Initial residual = 0.0024889, Final residual = 4.63135e-05, No Iterations 1
DILUPBiCGStab:  Solving for h, Initial residual = 0.00493763, Final residual = 8.45577e-05, No Iterations 1
Min/max T:372.999 400
GAMG:  Solving for p_rgh, Initial residual = 0.000477176, Final residual = 3.24675e-06, No Iterations 2
time step continuity errors : sum local = 1.43241, global = -0.000613049, cumulative = -17.9264
Min/max rho:900 900
ExecutionTime = 343.85 s  ClockTime = 344 s

Time = 40


Solving for fluid region air
DILUPBiCGStab:  Solving for Ux, Initial residual = 0.00420708, Final residual = 0.000128959, No Iterations 1
DILUPBiCGStab:  Solving for Uy, Initial residual = 0.0121227, Final residual = 0.000385418, No Iterations 1
DILUPBiCGStab:  Solving for Uz, Initial residual = 0.0062618, Final residual = 0.000171224, No Iterations 1
DILUPBiCGStab:  Solving for h, Initial residual = 0.00137478, Final residual = 4.15668e-05, No Iterations 1
Min/max T:299.956 373
GAMG:  Solving for p_rgh, Initial residual = 0.0113251, Final residual = 4.08623e-05, No Iterations 3
time step continuity errors : sum local = 0.00040211, global = -2.32601e-05, cumulative = -17.9264
Min/max rho:1 1.17099
DILUPBiCGStab:  Solving for epsilon, Initial residual = 0.00152465, Final residual = 3.1943e-05, No Iterations 1
DILUPBiCGStab:  Solving for k, Initial residual = 0.00436077, Final residual = 0.000116013, No Iterations 1

Solving for fluid region porous
DILUPBiCGStab:  Solving for Ux, Initial residual = 0.00241964, Final residual = 4.56922e-05, No Iterations 1
DILUPBiCGStab:  Solving for Uy, Initial residual = 0.00144107, Final residual = 2.26394e-05, No Iterations 1
DILUPBiCGStab:  Solving for Uz, Initial residual = 0.0023764, Final residual = 4.43979e-05, No Iterations 1
DILUPBiCGStab:  Solving for h, Initial residual = 0.00479912, Final residual = 8.22881e-05, No Iterations 1
Min/max T:372.999 400
GAMG:  Solving for p_rgh, Initial residual = 0.000455061, Final residual = 3.08595e-06, No Iterations 2
time step continuity errors : sum local = 1.36028, global = -0.0010839, cumulative = -17.9275
Min/max rho:900 900
ExecutionTime = 350.41 s  ClockTime = 351 s

Time = 41


Solving for fluid region air
DILUPBiCGStab:  Solving for Ux, Initial residual = 0.00419797, Final residual = 0.000128867, No Iterations 1
DILUPBiCGStab:  Solving for Uy, Initial residual = 0.0118674, Final residual = 0.000378829, No Iterations 1
DILUPBiCGStab:  Solving for Uz, Initial residual = 0.00616246, Final residual = 0.000169237, No Iterations 1
DILUPBiCGStab:  Solving for h, Initial residual = 0.00135528, Final residual = 4.10172e-05, No Iterations 1
Min/max T:299.956 373
GAMG:  Solving for p_rgh, Initial residual = 0.0111287, Final residual = 0.000108173, No Iterations 2
time step continuity errors : sum local = 0.00106604, global = -2.85933e-05, cumulative = -17.9276
Min/max rho:1 1.17099
DILUPBiCGStab:  Solving for epsilon, Initial residual = 0.00148241, Final residual = 3.1459e-05, No Iterations 1
DILUPBiCGStab:  Solving for k, Initial residual = 0.00428837, Final residual = 0.000114674, No Iterations 1

Solving for fluid region porous
DILUPBiCGStab:  Solving for Ux, Initial residual = 0.00231578, Final residual = 4.38816e-05, No Iterations 1
DILUPBiCGStab:  Solving for Uy, Initial residual = 0.00136757, Final residual = 2.15246e-05, No Iterations 1
DILUPBiCGStab:  Solving for Uz, Initial residual = 0.00227023, Final residual = 4.25791e-05, No Iterations 1
DILUPBiCGStab:  Solving for h, Initial residual = 0.00466821, Final residual = 8.01388e-05, No Iterations 1
Min/max T:372.999 400
GAMG:  Solving for p_rgh, Initial residual = 0.000434058, Final residual = 2.93535e-06, No Iterations 2
time step continuity errors : sum local = 1.29284, global = -0.00152578, cumulative = -17.9291
Min/max rho:900 900
ExecutionTime = 356.51 s  ClockTime = 357 s

Time = 42


Solving for fluid region air
DILUPBiCGStab:  Solving for Ux, Initial residual = 0.00417852, Final residual = 0.000128434, No Iterations 1
DILUPBiCGStab:  Solving for Uy, Initial residual = 0.0116291, Final residual = 0.000372712, No Iterations 1
DILUPBiCGStab:  Solving for Uz, Initial residual = 0.00607479, Final residual = 0.000167522, No Iterations 1
DILUPBiCGStab:  Solving for h, Initial residual = 0.00133695, Final residual = 4.05034e-05, No Iterations 1
Min/max T:299.956 373
GAMG:  Solving for p_rgh, Initial residual = 0.0109224, Final residual = 4.41889e-05, No Iterations 3
time step continuity errors : sum local = 0.000436141, global = -4.82522e-05, cumulative = -17.9291
Min/max rho:1 1.17099
DILUPBiCGStab:  Solving for epsilon, Initial residual = 0.00143974, Final residual = 3.0937e-05, No Iterations 1
DILUPBiCGStab:  Solving for k, Initial residual = 0.00421608, Final residual = 0.000113294, No Iterations 1

Solving for fluid region porous
DILUPBiCGStab:  Solving for Ux, Initial residual = 0.00221747, Final residual = 4.2157e-05, No Iterations 1
DILUPBiCGStab:  Solving for Uy, Initial residual = 0.00129829, Final residual = 2.04718e-05, No Iterations 1
DILUPBiCGStab:  Solving for Uz, Initial residual = 0.00216991, Final residual = 4.08507e-05, No Iterations 1
DILUPBiCGStab:  Solving for h, Initial residual = 0.00454431, Final residual = 7.80985e-05, No Iterations 1
Min/max T:372.999 400
GAMG:  Solving for p_rgh, Initial residual = 0.000414108, Final residual = 2.79353e-06, No Iterations 2
time step continuity errors : sum local = 1.22942, global = -0.00194074, cumulative = -17.9311
Min/max rho:900 900
ExecutionTime = 363.34 s  ClockTime = 364 s

Time = 43


Solving for fluid region air
DILUPBiCGStab:  Solving for Ux, Initial residual = 0.00417251, Final residual = 0.000128451, No Iterations 1
DILUPBiCGStab:  Solving for Uy, Initial residual = 0.0114052, Final residual = 0.000366854, No Iterations 1
DILUPBiCGStab:  Solving for Uz, Initial residual = 0.00596472, Final residual = 0.000165187, No Iterations 1
DILUPBiCGStab:  Solving for h, Initial residual = 0.00131979, Final residual = 4.00246e-05, No Iterations 1
Min/max T:299.956 373
GAMG:  Solving for p_rgh, Initial residual = 0.0107944, Final residual = 0.000107561, No Iterations 2
time step continuity errors : sum local = 0.00106325, global = -4.92933e-05, cumulative = -17.9311
Min/max rho:1 1.17099
DILUPBiCGStab:  Solving for epsilon, Initial residual = 0.00139698, Final residual = 3.03835e-05, No Iterations 1
DILUPBiCGStab:  Solving for k, Initial residual = 0.00414468, Final residual = 0.000111864, No Iterations 1

Solving for fluid region porous
DILUPBiCGStab:  Solving for Ux, Initial residual = 0.00212434, Final residual = 4.05133e-05, No Iterations 1
DILUPBiCGStab:  Solving for Uy, Initial residual = 0.00123294, Final residual = 1.94769e-05, No Iterations 1
DILUPBiCGStab:  Solving for Uz, Initial residual = 0.00207502, Final residual = 3.92071e-05, No Iterations 1
DILUPBiCGStab:  Solving for h, Initial residual = 0.00442688, Final residual = 7.61589e-05, No Iterations 1
Min/max T:372.999 400
GAMG:  Solving for p_rgh, Initial residual = 0.000395151, Final residual = 2.6589e-06, No Iterations 2
time step continuity errors : sum local = 1.16931, global = -0.00233314, cumulative = -17.9335
Min/max rho:900 900
ExecutionTime = 369.87 s  ClockTime = 370 s

Time = 44


Solving for fluid region air
DILUPBiCGStab:  Solving for Ux, Initial residual = 0.00415191, Final residual = 0.000127963, No Iterations 1
DILUPBiCGStab:  Solving for Uy, Initial residual = 0.0111945, Final residual = 0.000361548, No Iterations 1
DILUPBiCGStab:  Solving for Uz, Initial residual = 0.00587388, Final residual = 0.000163332, No Iterations 1
DILUPBiCGStab:  Solving for h, Initial residual = 0.00130354, Final residual = 3.95745e-05, No Iterations 1
Min/max T:299.956 373
GAMG:  Solving for p_rgh, Initial residual = 0.0106133, Final residual = 4.11398e-05, No Iterations 3
time step continuity errors : sum local = 0.000407293, global = -5.21144e-05, cumulative = -17.9335
Min/max rho:1 1.17099
DILUPBiCGStab:  Solving for epsilon, Initial residual = 0.00135424, Final residual = 2.97973e-05, No Iterations 1
DILUPBiCGStab:  Solving for k, Initial residual = 0.00407406, Final residual = 0.000110391, No Iterations 1

Solving for fluid region porous
DILUPBiCGStab:  Solving for Ux, Initial residual = 0.00203606, Final residual = 3.89458e-05, No Iterations 1
DILUPBiCGStab:  Solving for Uy, Initial residual = 0.00117128, Final residual = 1.85366e-05, No Iterations 1
DILUPBiCGStab:  Solving for Uz, Initial residual = 0.00198525, Final residual = 3.76434e-05, No Iterations 1
DILUPBiCGStab:  Solving for h, Initial residual = 0.00431545, Final residual = 7.43142e-05, No Iterations 1
Min/max T:372.999 400
GAMG:  Solving for p_rgh, Initial residual = 0.000377136, Final residual = 2.53065e-06, No Iterations 2
time step continuity errors : sum local = 1.11213, global = -0.00270569, cumulative = -17.9362
Min/max rho:900 900
ExecutionTime = 376.31 s  ClockTime = 377 s

Time = 45


Solving for fluid region air
DILUPBiCGStab:  Solving for Ux, Initial residual = 0.00414091, Final residual = 0.000127812, No Iterations 1
DILUPBiCGStab:  Solving for Uy, Initial residual = 0.0110052, Final residual = 0.000356673, No Iterations 1
DILUPBiCGStab:  Solving for Uz, Initial residual = 0.00576642, Final residual = 0.000160999, No Iterations 1
DILUPBiCGStab:  Solving for h, Initial residual = 0.00128825, Final residual = 3.91535e-05, No Iterations 1
Min/max T:299.957 373
GAMG:  Solving for p_rgh, Initial residual = 0.0104971, Final residual = 0.000100873, No Iterations 2
time step continuity errors : sum local = 0.00100025, global = -3.87811e-05, cumulative = -17.9363
Min/max rho:1 1.17099
DILUPBiCGStab:  Solving for epsilon, Initial residual = 0.0013117, Final residual = 2.91826e-05, No Iterations 1
[...]
Min/max rho:1 1.17094
DILUPBiCGStab:  Solving for epsilon, Initial residual = 1.0445e-06, Final residual = 2.3257e-08, No Iterations 1
DILUPBiCGStab:  Solving for k, Initial residual = 1.07403e-06, Final residual = 2.9329e-08, No Iterations 1

Solving for fluid region porous
DILUPBiCGStab:  Solving for Ux, Initial residual = 2.79625e-07, Final residual = 5.35567e-09, No Iterations 1
DILUPBiCGStab:  Solving for Uy, Initial residual = 1.10447e-07, Final residual = 2.06404e-09, No Iterations 1
DILUPBiCGStab:  Solving for Uz, Initial residual = 1.38417e-06, Final residual = 2.63454e-08, No Iterations 1
DILUPBiCGStab:  Solving for h, Initial residual = 0.000334927, Final residual = 5.9175e-06, No Iterations 1
Min/max T:372.998 400
GAMG:  Solving for p_rgh, Initial residual = 2.36646e-07, Final residual = 8.34116e-09, No Iterations 1
time step continuity errors : sum local = 0.00361996, global = -0.00017154, cumulative = -18.0219
Min/max rho:900 900
ExecutionTime = 3728.47 s  ClockTime = 4040 s

Time = 643


Solving for fluid region air
DILUPBiCGStab:  Solving for Ux, Initial residual = 3.25464e-06, Final residual = 1.1292e-07, No Iterations 1
DILUPBiCGStab:  Solving for Uy, Initial residual = 3.89362e-05, Final residual = 1.38254e-06, No Iterations 1
DILUPBiCGStab:  Solving for Uz, Initial residual = 4.99738e-06, Final residual = 1.68468e-07, No Iterations 1
DILUPBiCGStab:  Solving for h, Initial residual = 1.40379e-06, Final residual = 5.09847e-08, No Iterations 1
Min/max T:299.969 377.976
GAMG:  Solving for p_rgh, Initial residual = 1.67094e-05, Final residual = 9.27696e-08, No Iterations 3
time step continuity errors : sum local = 1.07884e-06, global = -1.43741e-07, cumulative = -18.0219
Min/max rho:1 1.17094
DILUPBiCGStab:  Solving for epsilon, Initial residual = 9.6547e-07, Final residual = 9.6547e-07, No Iterations 0
DILUPBiCGStab:  Solving for k, Initial residual = 1.07092e-06, Final residual = 2.91746e-08, No Iterations 1

Solving for fluid region porous
DILUPBiCGStab:  Solving for Ux, Initial residual = 2.79023e-07, Final residual = 5.34334e-09, No Iterations 1
DILUPBiCGStab:  Solving for Uy, Initial residual = 1.09747e-07, Final residual = 2.05106e-09, No Iterations 1
DILUPBiCGStab:  Solving for Uz, Initial residual = 1.37691e-06, Final residual = 2.62113e-08, No Iterations 1
DILUPBiCGStab:  Solving for h, Initial residual = 0.000334461, Final residual = 5.90935e-06, No Iterations 1
Min/max T:372.998 400
GAMG:  Solving for p_rgh, Initial residual = 2.36379e-07, Final residual = 8.33504e-09, No Iterations 1
time step continuity errors : sum local = 0.0036173, global = -0.000171798, cumulative = -18.022
Min/max rho:900 900
ExecutionTime = 3733.44 s  ClockTime = 4045 s

Time = 644


Solving for fluid region air
DILUPBiCGStab:  Solving for Ux, Initial residual = 3.22752e-06, Final residual = 1.12111e-07, No Iterations 1
DILUPBiCGStab:  Solving for Uy, Initial residual = 3.85753e-05, Final residual = 1.36996e-06, No Iterations 1
DILUPBiCGStab:  Solving for Uz, Initial residual = 4.96206e-06, Final residual = 1.67729e-07, No Iterations 1
DILUPBiCGStab:  Solving for h, Initial residual = 1.40073e-06, Final residual = 5.08935e-08, No Iterations 1
Min/max T:299.969 377.992
GAMG:  Solving for p_rgh, Initial residual = 1.69402e-05, Final residual = 7.79376e-08, No Iterations 3
time step continuity errors : sum local = 9.06357e-07, global = -1.30292e-07, cumulative = -18.022
Min/max rho:1 1.17094
DILUPBiCGStab:  Solving for epsilon, Initial residual = 1.03651e-06, Final residual = 2.24307e-08, No Iterations 1
DILUPBiCGStab:  Solving for k, Initial residual = 1.05482e-06, Final residual = 2.85409e-08, No Iterations 1

Solving for fluid region porous
DILUPBiCGStab:  Solving for Ux, Initial residual = 2.78428e-07, Final residual = 5.33116e-09, No Iterations 1
DILUPBiCGStab:  Solving for Uy, Initial residual = 1.09057e-07, Final residual = 2.03825e-09, No Iterations 1
DILUPBiCGStab:  Solving for Uz, Initial residual = 1.36971e-06, Final residual = 2.60782e-08, No Iterations 1
DILUPBiCGStab:  Solving for h, Initial residual = 0.000333996, Final residual = 5.90122e-06, No Iterations 1
Min/max T:372.998 400
GAMG:  Solving for p_rgh, Initial residual = 2.36115e-07, Final residual = 8.32897e-09, No Iterations 1
time step continuity errors : sum local = 0.00361467, global = -0.000172054, cumulative = -18.0222
Min/max rho:900 900
ExecutionTime = 3738.47 s  ClockTime = 4050 s

Time = 645


Solving for fluid region air
DILUPBiCGStab:  Solving for Ux, Initial residual = 3.19706e-06, Final residual = 1.11163e-07, No Iterations 1
DILUPBiCGStab:  Solving for Uy, Initial residual = 3.82136e-05, Final residual = 1.35769e-06, No Iterations 1
DILUPBiCGStab:  Solving for Uz, Initial residual = 4.92686e-06, Final residual = 1.66905e-07, No Iterations 1
DILUPBiCGStab:  Solving for h, Initial residual = 1.39694e-06, Final residual = 5.07572e-08, No Iterations 1
Min/max T:299.969 378.008
GAMG:  Solving for p_rgh, Initial residual = 1.64561e-05, Final residual = 1.50822e-07, No Iterations 2
time step continuity errors : sum local = 1.75395e-06, global = -2.0028e-07, cumulative = -18.0222
Min/max rho:1 1.17094
DILUPBiCGStab:  Solving for epsilon, Initial residual = 9.57393e-07, Final residual = 9.57393e-07, No Iterations 0
DILUPBiCGStab:  Solving for k, Initial residual = 1.05184e-06, Final residual = 2.84555e-08, No Iterations 1

Solving for fluid region porous
DILUPBiCGStab:  Solving for Ux, Initial residual = 2.7784e-07, Final residual = 5.31913e-09, No Iterations 1
DILUPBiCGStab:  Solving for Uy, Initial residual = 1.08377e-07, Final residual = 2.02561e-09, No Iterations 1
DILUPBiCGStab:  Solving for Uz, Initial residual = 1.36255e-06, Final residual = 2.59459e-08, No Iterations 1
DILUPBiCGStab:  Solving for h, Initial residual = 0.000333533, Final residual = 5.89312e-06, No Iterations 1
Min/max T:372.998 400
GAMG:  Solving for p_rgh, Initial residual = 2.35853e-07, Final residual = 8.32294e-09, No Iterations 1
time step continuity errors : sum local = 0.00361205, global = -0.000172308, cumulative = -18.0224
Min/max rho:900 900
ExecutionTime = 3743.34 s  ClockTime = 4055 s

Time = 646


Solving for fluid region air
DILUPBiCGStab:  Solving for Ux, Initial residual = 3.15683e-06, Final residual = 1.09776e-07, No Iterations 1
DILUPBiCGStab:  Solving for Uy, Initial residual = 3.78443e-05, Final residual = 1.34469e-06, No Iterations 1
DILUPBiCGStab:  Solving for Uz, Initial residual = 4.87459e-06, Final residual = 1.65352e-07, No Iterations 1
DILUPBiCGStab:  Solving for h, Initial residual = 1.39371e-06, Final residual = 5.06546e-08, No Iterations 1
Min/max T:299.969 378.023
GAMG:  Solving for p_rgh, Initial residual = 1.66095e-05, Final residual = 8.70616e-08, No Iterations 3
time step continuity errors : sum local = 1.01246e-06, global = -1.60453e-07, cumulative = -18.0224
Min/max rho:1 1.17094
DILUPBiCGStab:  Solving for epsilon, Initial residual = 1.02851e-06, Final residual = 2.17486e-08, No Iterations 1
DILUPBiCGStab:  Solving for k, Initial residual = 1.03609e-06, Final residual = 2.796e-08, No Iterations 1

Solving for fluid region porous
DILUPBiCGStab:  Solving for Ux, Initial residual = 2.77259e-07, Final residual = 5.30724e-09, No Iterations 1
DILUPBiCGStab:  Solving for Uy, Initial residual = 1.07706e-07, Final residual = 2.01314e-09, No Iterations 1
DILUPBiCGStab:  Solving for Uz, Initial residual = 1.35544e-06, Final residual = 2.58147e-08, No Iterations 1
DILUPBiCGStab:  Solving for h, Initial residual = 0.000333071, Final residual = 5.88504e-06, No Iterations 1
Min/max T:372.998 400
GAMG:  Solving for p_rgh, Initial residual = 2.35594e-07, Final residual = 8.31696e-09, No Iterations 1
time step continuity errors : sum local = 0.00360946, global = -0.000172562, cumulative = -18.0226
Min/max rho:900 900
ExecutionTime = 3748.47 s  ClockTime = 4060 s

Time = 647


Solving for fluid region air
DILUPBiCGStab:  Solving for Ux, Initial residual = 3.132e-06, Final residual = 1.0893e-07, No Iterations 1
DILUPBiCGStab:  Solving for Uy, Initial residual = 3.75288e-05, Final residual = 1.33397e-06, No Iterations 1
DILUPBiCGStab:  Solving for Uz, Initial residual = 4.85027e-06, Final residual = 1.64746e-07, No Iterations 1
DILUPBiCGStab:  Solving for h, Initial residual = 1.38986e-06, Final residual = 5.0515e-08, No Iterations 1
Min/max T:299.969 378.039
GAMG:  Solving for p_rgh, Initial residual = 1.62471e-05, Final residual = 7.6993e-08, No Iterations 3
time step continuity errors : sum local = 8.95369e-07, global = -1.55898e-07, cumulative = -18.0226
Min/max rho:1 1.17094
DILUPBiCGStab:  Solving for epsilon, Initial residual = 9.50634e-07, Final residual = 9.50634e-07, No Iterations 0
DILUPBiCGStab:  Solving for k, Initial residual = 1.03347e-06, Final residual = 2.7923e-08, No Iterations 1

Solving for fluid region porous
DILUPBiCGStab:  Solving for Ux, Initial residual = 2.76685e-07, Final residual = 5.29548e-09, No Iterations 1
DILUPBiCGStab:  Solving for Uy, Initial residual = 1.07046e-07, Final residual = 2.00085e-09, No Iterations 1
DILUPBiCGStab:  Solving for Uz, Initial residual = 1.34839e-06, Final residual = 2.56843e-08, No Iterations 1
DILUPBiCGStab:  Solving for h, Initial residual = 0.00033261, Final residual = 5.87698e-06, No Iterations 1
Min/max T:372.998 400
GAMG:  Solving for p_rgh, Initial residual = 2.35338e-07, Final residual = 8.31102e-09, No Iterations 1
time step continuity errors : sum local = 0.00360688, global = -0.000172814, cumulative = -18.0227
Min/max rho:900 900
ExecutionTime = 3753.58 s  ClockTime = 4066 s

Time = 648


Solving for fluid region air
DILUPBiCGStab:  Solving for Ux, Initial residual = 3.10232e-06, Final residual = 1.07862e-07, No Iterations 1
DILUPBiCGStab:  Solving for Uy, Initial residual = 3.71832e-05, Final residual = 1.32123e-06, No Iterations 1
DILUPBiCGStab:  Solving for Uz, Initial residual = 4.8117e-06, Final residual = 1.6353e-07, No Iterations 1
DILUPBiCGStab:  Solving for h, Initial residual = 1.38672e-06, Final residual = 5.04147e-08, No Iterations 1
Min/max T:299.969 378.054
GAMG:  Solving for p_rgh, Initial residual = 1.64686e-05, Final residual = 1.56488e-07, No Iterations 2
time step continuity errors : sum local = 1.81984e-06, global = -2.268e-07, cumulative = -18.0227
Min/max rho:1 1.17094
DILUPBiCGStab:  Solving for epsilon, Initial residual = 1.0207e-06, Final residual = 2.14742e-08, No Iterations 1
DILUPBiCGStab:  Solving for k, Initial residual = 1.01837e-06, Final residual = 2.74918e-08, No Iterations 1

Solving for fluid region porous
DILUPBiCGStab:  Solving for Ux, Initial residual = 2.76117e-07, Final residual = 5.28387e-09, No Iterations 1
DILUPBiCGStab:  Solving for Uy, Initial residual = 1.06396e-07, Final residual = 1.98873e-09, No Iterations 1
DILUPBiCGStab:  Solving for Uz, Initial residual = 1.34138e-06, Final residual = 2.55548e-08, No Iterations 1
DILUPBiCGStab:  Solving for h, Initial residual = 0.000332151, Final residual = 5.86895e-06, No Iterations 1
Min/max T:372.998 400
GAMG:  Solving for p_rgh, Initial residual = 2.35085e-07, Final residual = 8.30514e-09, No Iterations 1
time step continuity errors : sum local = 0.00360433, global = -0.000173065, cumulative = -18.0229
Min/max rho:900 900
ExecutionTime = 3758.68 s  ClockTime = 4071 s

Time = 649


Solving for fluid region air
DILUPBiCGStab:  Solving for Ux, Initial residual = 3.0656e-06, Final residual = 1.06578e-07, No Iterations 1
DILUPBiCGStab:  Solving for Uy, Initial residual = 3.68226e-05, Final residual = 1.30884e-06, No Iterations 1
DILUPBiCGStab:  Solving for Uz, Initial residual = 4.76995e-06, Final residual = 1.62256e-07, No Iterations 1
DILUPBiCGStab:  Solving for h, Initial residual = 1.38273e-06, Final residual = 5.02788e-08, No Iterations 1
Min/max T:299.969 378.07
GAMG:  Solving for p_rgh, Initial residual = 1.60249e-05, Final residual = 8.69987e-08, No Iterations 3
time step continuity errors : sum local = 1.01173e-06, global = -1.70779e-07, cumulative = -18.0229
Min/max rho:1 1.17094
DILUPBiCGStab:  Solving for epsilon, Initial residual = 9.42497e-07, Final residual = 9.42497e-07, No Iterations 0
DILUPBiCGStab:  Solving for k, Initial residual = 1.01559e-06, Final residual = 2.74203e-08, No Iterations 1

Solving for fluid region porous
DILUPBiCGStab:  Solving for Ux, Initial residual = 2.75556e-07, Final residual = 5.27239e-09, No Iterations 1
DILUPBiCGStab:  Solving for Uy, Initial residual = 1.05756e-07, Final residual = 1.97679e-09, No Iterations 1
DILUPBiCGStab:  Solving for Uz, Initial residual = 1.33442e-06, Final residual = 2.54263e-08, No Iterations 1
DILUPBiCGStab:  Solving for h, Initial residual = 0.000331693, Final residual = 5.86094e-06, No Iterations 1
Min/max T:372.998 400
GAMG:  Solving for p_rgh, Initial residual = 2.34834e-07, Final residual = 8.29932e-09, No Iterations 1
time step continuity errors : sum local = 0.00360181, global = -0.000173314, cumulative = -18.0231
Min/max rho:900 900
ExecutionTime = 3763.69 s  ClockTime = 4076 s

Time = 650


Solving for fluid region air
DILUPBiCGStab:  Solving for Ux, Initial residual = 3.04045e-06, Final residual = 1.05653e-07, No Iterations 1
DILUPBiCGStab:  Solving for Uy, Initial residual = 3.65049e-05, Final residual = 1.29729e-06, No Iterations 1
DILUPBiCGStab:  Solving for Uz, Initial residual = 4.74243e-06, Final residual = 1.61401e-07, No Iterations 1
DILUPBiCGStab:  Solving for h, Initial residual = 1.37956e-06, Final residual = 5.01773e-08, No Iterations 1
Min/max T:299.969 378.086
GAMG:  Solving for p_rgh, Initial residual = 1.62805e-05, Final residual = 7.50471e-08, No Iterations 3
time step continuity errors : sum local = 8.72742e-07, global = -1.48886e-07, cumulative = -18.0231
Min/max rho:1 1.17094
DILUPBiCGStab:  Solving for epsilon, Initial residual = 1.01156e-06, Final residual = 2.13245e-08, No Iterations 1
DILUPBiCGStab:  Solving for k, Initial residual = 1.00134e-06, Final residual = 2.70001e-08, No Iterations 1

Solving for fluid region porous
DILUPBiCGStab:  Solving for Ux, Initial residual = 2.75001e-07, Final residual = 5.26105e-09, No Iterations 1
DILUPBiCGStab:  Solving for Uy, Initial residual = 1.05125e-07, Final residual = 1.96502e-09, No Iterations 1
DILUPBiCGStab:  Solving for Uz, Initial residual = 1.32751e-06, Final residual = 2.52986e-08, No Iterations 1
DILUPBiCGStab:  Solving for h, Initial residual = 0.000331236, Final residual = 5.85296e-06, No Iterations 1
Min/max T:372.998 400
GAMG:  Solving for p_rgh, Initial residual = 2.34586e-07, Final residual = 8.29355e-09, No Iterations 1
time step continuity errors : sum local = 0.0035993, global = -0.000173562, cumulative = -18.0233
Min/max rho:900 900
ExecutionTime = 3775.74 s  ClockTime = 4088 s

Time = 651


Solving for fluid region air
DILUPBiCGStab:  Solving for Ux, Initial residual = 3.01344e-06, Final residual = 1.0473e-07, No Iterations 1
DILUPBiCGStab:  Solving for Uy, Initial residual = 3.61812e-05, Final residual = 1.28601e-06, No Iterations 1
DILUPBiCGStab:  Solving for Uz, Initial residual = 4.71644e-06, Final residual = 1.6071e-07, No Iterations 1
DILUPBiCGStab:  Solving for h, Initial residual = 1.37543e-06, Final residual = 5.00555e-08, No Iterations 1
Min/max T:299.969 378.101
GAMG:  Solving for p_rgh, Initial residual = 1.58953e-05, Final residual = 1.45578e-07, No Iterations 2
time step continuity errors : sum local = 1.69297e-06, global = -2.00927e-07, cumulative = -18.0233
Min/max rho:1 1.17094
DILUPBiCGStab:  Solving for epsilon, Initial residual = 9.35008e-07, Final residual = 9.35008e-07, No Iterations 0
DILUPBiCGStab:  Solving for k, Initial residual = 9.98397e-07, Final residual = 9.98397e-07, No Iterations 0

Solving for fluid region porous
DILUPBiCGStab:  Solving for Ux, Initial residual = 2.74453e-07, Final residual = 5.24984e-09, No Iterations 1
DILUPBiCGStab:  Solving for Uy, Initial residual = 1.04504e-07, Final residual = 1.95343e-09, No Iterations 1
DILUPBiCGStab:  Solving for Uz, Initial residual = 1.32064e-06, Final residual = 2.51718e-08, No Iterations 1
DILUPBiCGStab:  Solving for h, Initial residual = 0.000330781, Final residual = 5.845e-06, No Iterations 1
Min/max T:372.998 400
GAMG:  Solving for p_rgh, Initial residual = 2.34341e-07, Final residual = 8.28781e-09, No Iterations 1
time step continuity errors : sum local = 0.00359681, global = -0.000173809, cumulative = -18.0234
Min/max rho:900 900
ExecutionTime = 3780.31 s  ClockTime = 4094 s

Time = 652


Solving for fluid region air
DILUPBiCGStab:  Solving for Ux, Initial residual = 2.9788e-06, Final residual = 1.03503e-07, No Iterations 1
DILUPBiCGStab:  Solving for Uy, Initial residual = 3.58288e-05, Final residual = 1.2729e-06, No Iterations 1
DILUPBiCGStab:  Solving for Uz, Initial residual = 4.6746e-06, Final residual = 1.5947e-07, No Iterations 1
DILUPBiCGStab:  Solving for h, Initial residual = 1.37199e-06, Final residual = 4.99752e-08, No Iterations 1
Min/max T:299.969 378.117
GAMG:  Solving for p_rgh, Initial residual = 1.57232e-05, Final residual = 7.95179e-08, No Iterations 3
time step continuity errors : sum local = 9.24736e-07, global = -1.43222e-07, cumulative = -18.0234
Min/max rho:1 1.17094
DILUPBiCGStab:  Solving for epsilon, Initial residual = 9.52257e-07, Final residual = 9.52257e-07, No Iterations 0
DILUPBiCGStab:  Solving for k, Initial residual = 1.02133e-06, Final residual = 2.74761e-08, No Iterations 1

Solving for fluid region porous
DILUPBiCGStab:  Solving for Ux, Initial residual = 2.7391e-07, Final residual = 5.23877e-09, No Iterations 1
DILUPBiCGStab:  Solving for Uy, Initial residual = 1.03892e-07, Final residual = 1.94203e-09, No Iterations 1
DILUPBiCGStab:  Solving for Uz, Initial residual = 1.31383e-06, Final residual = 2.50459e-08, No Iterations 1
DILUPBiCGStab:  Solving for h, Initial residual = 0.000330327, Final residual = 5.83706e-06, No Iterations 1
Min/max T:372.998 400
GAMG:  Solving for p_rgh, Initial residual = 2.34098e-07, Final residual = 8.28211e-09, No Iterations 1
time step continuity errors : sum local = 0.00359434, global = -0.000174057, cumulative = -18.0236
Min/max rho:900 900
ExecutionTime = 3785.4 s  ClockTime = 4099 s

Time = 653


Solving for fluid region air
DILUPBiCGStab:  Solving for Ux, Initial residual = 2.95467e-06, Final residual = 1.02582e-07, No Iterations 1
DILUPBiCGStab:  Solving for Uy, Initial residual = 3.55191e-05, Final residual = 1.26135e-06, No Iterations 1
DILUPBiCGStab:  Solving for Uz, Initial residual = 4.64479e-06, Final residual = 1.58627e-07, No Iterations 1
DILUPBiCGStab:  Solving for h, Initial residual = 1.36851e-06, Final residual = 4.98707e-08, No Iterations 1
Min/max T:299.969 378.132
GAMG:  Solving for p_rgh, Initial residual = 1.61084e-05, Final residual = 1.58153e-07, No Iterations 2
time step continuity errors : sum local = 1.8392e-06, global = -2.06366e-07, cumulative = -18.0236
Min/max rho:1 1.17094
DILUPBiCGStab:  Solving for epsilon, Initial residual = 1.02301e-06, Final residual = 2.14777e-08, No Iterations 1
DILUPBiCGStab:  Solving for k, Initial residual = 1.00511e-06, Final residual = 2.70338e-08, No Iterations 1

Solving for fluid region porous
DILUPBiCGStab:  Solving for Ux, Initial residual = 2.73374e-07, Final residual = 5.22783e-09, No Iterations 1
DILUPBiCGStab:  Solving for Uy, Initial residual = 1.0329e-07, Final residual = 1.9308e-09, No Iterations 1
DILUPBiCGStab:  Solving for Uz, Initial residual = 1.30706e-06, Final residual = 2.49209e-08, No Iterations 1
DILUPBiCGStab:  Solving for h, Initial residual = 0.000329875, Final residual = 5.82915e-06, No Iterations 1
Min/max T:372.998 400
GAMG:  Solving for p_rgh, Initial residual = 2.33858e-07, Final residual = 8.27645e-09, No Iterations 1
time step continuity errors : sum local = 0.00359188, global = -0.000174305, cumulative = -18.0238
Min/max rho:900 900
ExecutionTime = 3790.28 s  ClockTime = 4104 s

Time = 654


Solving for fluid region air
